14
   
O          1.04700       -0.09200        0.05900
C          2.40800       -0.06000       -0.06500
C          3.08300        1.15900       -0.11300
C          4.47300        1.17300       -0.24100
C          5.18300       -0.02700       -0.31900
C          4.50600       -1.24700       -0.27100
C          3.11800       -1.25900       -0.14400
O          2.43900       -2.44500       -0.09500
H          0.71400        0.81600        0.10000
H          2.54600        2.10000       -0.05400
H          5.00500        2.12100       -0.27900
H          6.26600       -0.01000       -0.41800
H          5.07200       -2.17000       -0.33300
H          3.07400       -3.17400       -0.16100
