22
   
C          0.90500        0.02100       -0.10600
C          2.42500        0.01100       -0.12400
C          2.97200       -1.37200       -0.47800
C          4.50400       -1.37700       -0.49400
C          5.07200       -2.76300       -0.80700
O          4.65600       -3.19700       -2.10900
C          6.60400       -2.77200       -0.77100
O          7.08000       -4.08400       -1.07000
H          0.53500        1.01900        0.15100
H          0.51700       -0.68600        0.63500
H          0.49900       -0.25000       -1.08500
H          2.79800        0.31800        0.86000
H          2.78100        0.75000       -0.85200
H          2.58700       -1.67500       -1.45900
H          2.61100       -2.10700        0.25200
H          4.88100       -1.03900        0.47900
H          4.84800       -0.65800       -1.24800
H          4.68900       -3.50400       -0.09600
H          4.85500       -2.48300       -2.74000
H          6.98500       -2.48100        0.21200
H          7.01800       -2.09800       -1.52700
H          6.46400       -4.44500       -1.73800
