30
   
O          0.74800        0.50500        0.47500
C          2.16900        0.38500        0.49300
C          2.76200        1.15400       -0.69700
N          4.23700        1.16400       -0.71500
C          4.81200       -0.14400       -1.09600
C          4.70200       -0.49900       -2.60100
N          5.20200        0.53900       -3.53100
C          6.68100        0.62300       -3.55000
C          7.31100       -0.57100       -4.28400
O          6.66000       -0.76500       -5.53900
C          4.60700        1.84000       -3.14700
C          4.74300        2.19700       -1.64700
H          0.41800        0.05700        1.27300
H          2.41200       -0.67900        0.44900
H          2.53700        0.79700        1.43800
H          2.39200        2.18500       -0.61500
H          2.33400        0.77000       -1.63100
H          4.37200       -0.95200       -0.50200
H          5.87200       -0.13500       -0.81300
H          3.64800       -0.68300       -2.84500
H          5.20000       -1.45700       -2.78300
H          7.11800        0.72400       -2.55100
H          6.96300        1.51800       -4.11900
H          7.22500       -1.49500       -3.70500
H          8.37300       -0.38700       -4.47400
H          5.73100       -0.49600       -5.38000
H          3.54400        1.81800       -3.41600
H          5.03800        2.64600       -3.75400
H          4.24800        3.15700       -1.45400
H          5.80100        2.37100       -1.41500
