22
   
C          0.90400        0.08300        0.05700
C          2.42600        0.05300        0.03500
O          2.86600       -1.24400        0.43000
C          2.97700        0.39000       -1.35400
C          4.50900        0.43000       -1.37100
C          5.03900        0.79500       -2.75600
C          6.56100        0.84300       -2.78000
O          7.01000        1.19900       -4.08100
H          0.53200       -0.18500        1.05200
H          0.48600       -0.64900       -0.64300
H          0.52300        1.07400       -0.20400
H          2.81000        0.76700        0.77200
H          2.49300       -1.89000       -0.19300
H          2.58300        1.36000       -1.67900
H          2.63900       -0.36300       -2.07700
H          4.91200       -0.54500       -1.07400
H          4.86400        1.16400       -0.63700
H          4.64100        1.76800       -3.07200
H          4.68500        0.07100       -3.50000
H          6.99600       -0.12600       -2.51500
H          6.93800        1.59300       -2.07700
H          6.71000        0.50500       -4.69300
