30
100-18-5.pdb
C          1.03500        0.39000       -0.58300
C          2.40700        0.01900       -0.01200
C          2.38900        0.07300        1.51800
C          2.87600       -1.33700       -0.51000
C          4.06100       -1.44600       -1.25000
C          4.50900       -2.69000       -1.70900
C          3.78400       -3.85800       -1.43800
C          2.59900       -3.74700       -0.69800
C          2.15200       -2.50600       -0.24100
C          4.27700       -5.20200       -1.94200
C          4.55700       -6.17000       -0.78800
C          3.29300       -5.82000       -2.93900
H          0.76300        1.41100       -0.29300
H          0.24600       -0.27800       -0.22100
H          1.03900        0.34200       -1.67700
H          3.11600        0.78300       -0.35700
H          1.69500       -0.65800        1.94700
H          2.08300        1.06500        1.86700
H          3.38500       -0.13500        1.92700
H          4.65000       -0.56000       -1.47800
H          5.43300       -2.73700       -2.28100
H          2.00800       -4.63000       -0.46800
H          1.22800       -2.46300        0.33200
H          5.22600       -5.05300       -2.47500
H          3.66100       -6.36800       -0.18900
H          5.32300       -5.76400       -0.11800
H          4.91900       -7.13100       -1.16800
H          2.31800       -6.02300       -2.48200
H          3.68100       -6.76800       -3.32800
H          3.12800       -5.15100       -3.79100
