15
100-83-4.pdb
O          2.24900        0.03700        0.01600
C          0.88600        0.00500        0.01300
C          0.18800       -1.20100        0.01000
C         -1.20800       -1.18600       -0.00200
C         -1.89500        0.02900       -0.01000
C         -1.18100        1.23100       -0.00000
C         -1.90100        2.52000       -0.00400
O         -3.12400        2.58300       -0.01500
C          0.21500        1.22400        0.01200
H          2.58700       -0.87300       -0.01500
H          0.70800       -2.15400        0.01800
H         -1.76500       -2.12100       -0.00500
H         -2.98400        0.03800       -0.02200
H         -1.28000        3.43100        0.00400
H          0.78700        2.14700        0.01900
