16
100-51-6.pdb
O          3.22100        0.09800       -1.22800
C          2.39300       -0.01000       -0.07800
C          2.72400        1.08800        0.89300
C          2.62000        2.43200        0.50500
C          2.88400        3.45700        1.41400
C          3.25700        3.15100        2.72100
C          3.37300        1.82000        3.11700
C          3.10900        0.79300        2.20800
H          2.96900       -0.62800       -1.82100
H          2.55000       -0.99800        0.36800
H          1.34500        0.07000       -0.38300
H          2.33700        2.68000       -0.51600
H          2.80100        4.49500        1.10000
H          3.46100        3.94900        3.42900
H          3.67200        1.58100        4.13400
H          3.20700       -0.24000        2.53500
