12
100-70-9.pdb
N          3.05100        0.07100       -0.00100
C          1.88800        0.03300        0.01100
C          0.45100        0.04200        0.01600
C         -0.25100        1.24200        0.01600
C         -1.64200        1.19400       -0.00600
C         -2.28100       -0.04200       -0.02200
C         -1.50100       -1.18700       -0.01000
N         -0.15000       -1.17400        0.00800
H          0.26800        2.19600        0.02600
H         -2.22400        2.11200       -0.01300
H         -3.36400       -0.11200       -0.04400
H         -1.95500       -2.17400       -0.01600
