17
100-26-5.pdb
O          1.17800       -0.02000       -0.27800
C          2.49600        0.07200       -0.01200
O          3.08100        1.13300        0.11800
C          3.17800       -1.22800        0.14600
C          2.79100       -2.38300       -0.53900
C          3.51400       -3.56100       -0.35400
C          4.60500       -3.53300        0.50600
N          5.01800       -2.42400        1.18700
C          4.29400       -1.29300        0.97700
C          5.41800       -4.76500        0.72200
O          6.43000       -4.52100        1.58800
O          5.20000       -5.84000        0.19400
H          0.77700       -0.90400       -0.19100
H          1.96400       -2.38000       -1.24400
H          3.24600       -4.47400       -0.87800
H          4.64800       -0.41200        1.51100
H          6.39500       -3.57400        1.86600
