19
100-19-6.pdb
C          1.29800        0.49800       -0.77200
C          2.49100       -0.06200       -0.04400
O          2.82900        0.37000        1.05600
C          3.27200       -1.16700       -0.67800
C          2.91900       -1.71300       -1.92000
C          3.67500       -2.75300       -2.47400
C          4.79000       -3.24700       -1.78300
C          5.15300       -2.70700       -0.54300
C          4.39200       -1.66900        0.00300
N          5.58100       -4.34000       -2.36200
O          5.22000       -4.79200       -3.45900
O          6.56000       -4.74700       -1.72200
H          0.85400        1.29800       -0.17200
H          0.54300       -0.28000       -0.91300
H          1.60500        0.92300       -1.73000
H          2.06000       -1.35000       -2.47800
H          3.38300       -3.16300       -3.44000
H          6.01500       -3.07800        0.00800
H          4.67800       -1.25100        0.96800
