14
100-52-7.pdb
O          1.15500       -0.27400        0.40600
C          2.19300        0.03500       -0.16500
C          2.97000        1.23400        0.20400
C          2.53200        2.06400        1.24000
C          3.28000        3.18900        1.58900
C          4.46000        3.48100        0.90400
C          4.89300        2.65400       -0.13400
C          4.14900        1.52700       -0.48800
H          2.59800       -0.57800       -0.98800
H          1.61200        1.83700        1.77500
H          2.94500        3.83400        2.39700
H          5.04400        4.35600        1.18000
H          5.81200        2.88900       -0.66600
H          4.49700        0.89000       -1.29600
