22
100-49-2.pdb
O          2.66000       -1.22800        0.76300
C          2.34500       -0.06900        0.00300
C          2.78300        1.19000        0.76000
C          2.05300        1.31500        2.10800
C          2.41500        2.60800        2.83500
C          2.17000        3.83200        1.95900
C          2.91800        3.72200        0.63400
C          2.55800        2.43700       -0.10700
H          2.38900       -1.99800        0.23400
H          1.26700       -0.06000       -0.18800
H          2.86800       -0.14000       -0.95700
H          3.85700        1.10100        0.97600
H          2.30100        0.46400        2.75300
H          0.96800        1.28500        1.94600
H          3.47000        2.57700        3.13300
H          1.82500        2.69000        3.75500
H          2.48800        4.73600        2.48900
H          1.09600        3.93400        1.76500
H          3.99900        3.74500        0.82100
H          2.68400        4.58800        0.00500
H          3.15900        2.36800       -1.02100
H          1.50700        2.48600       -0.42100
