16
100-66-3.pdb
C          1.28600       -0.39900        0.54700
O          2.44800       -0.05400       -0.19800
C          3.10200        1.08700        0.18000
C          2.70500        1.96200        1.19200
C          3.46600        3.10000        1.47700
C          4.62600        3.36800        0.75200
C          5.02600        2.49900       -0.26000
C          4.26500        1.36400       -0.54500
H          0.88600       -1.33000        0.13200
H          0.51100        0.36800        0.44700
H          1.53100       -0.58000        1.59800
H          1.80800        1.79100        1.77800
H          3.15100        3.77800        2.26600
H          5.21600        4.25300        0.97500
H          5.92900        2.70300       -0.82900
H          4.58000        0.68800       -1.33600
