18
100-13-0.pdb
O          1.38100        0.52200        0.20600
N          2.39700       -0.15100       -0.02000
O          2.82500       -1.04800        0.72100
C          3.14400        0.13200       -1.25200
C          2.70300        1.13900       -2.11900
C          3.41500        1.39700       -3.29600
C          4.56500        0.66000       -3.61600
C          5.31300        0.85900       -4.86500
C          5.43400        2.02100       -5.52000
C          4.98700       -0.35200       -2.73900
C          4.28700       -0.61600       -1.55700
H          1.81300        1.72500       -1.89900
H          3.04800        2.17000       -3.96800
H          5.81600       -0.02000       -5.26600
H          4.98500        2.94400       -5.17100
H          6.01700        2.07200       -6.43500
H          5.87100       -0.94300       -2.96800
H          4.64300       -1.40300       -0.89700
