12
100-54-9.pdb
N          3.09700       -0.11300        0.04900
C          1.93800       -0.05500        0.03900
C          0.51200        0.02000        0.02400
C         -0.15200        1.24700        0.01100
C         -1.54500        1.27000       -0.00700
C         -2.22300        0.06200       -0.01200
N         -1.60900       -1.14200        0.00200
C         -0.25400       -1.13600        0.01900
H          0.40500        2.18100        0.01500
H         -2.08900        2.20900       -0.01900
H         -3.30900        0.02800       -0.02800
H          0.20300       -2.12300        0.03000
