17
100-71-0.pdb
C          1.21100        0.46100       -0.61500
C          2.55300       -0.03900       -0.10300
C          3.00300       -1.26200       -0.85700
C          3.77600       -1.13800       -2.01000
C          4.13300       -2.28900       -2.70700
C          3.71000       -3.52600       -2.23800
C          2.94700       -3.56100       -1.08400
N          2.58400       -2.46200       -0.38800
H          0.90600        1.35900       -0.06900
H          0.43100       -0.29800       -0.48400
H          1.25900        0.71000       -1.68100
H          2.47100       -0.28200        0.96300
H          3.30700        0.75300       -0.18600
H          4.09000       -0.16300       -2.36600
H          4.73000       -2.21900       -3.61000
H          3.96600       -4.44100       -2.76000
H          2.59200       -4.50300       -0.67600
