22
1001-26-9.pdb
C          1.13400       -0.46800       -0.53700
C          2.64700       -0.57600       -0.56200
O          3.04500       -1.42200        0.52900
C          4.40400       -1.58200        0.60600
C          4.94600       -2.68400        1.13400
C          6.40900       -2.83100        1.17200
O          7.20700       -2.01000        0.74900
O          6.69100       -4.07800        1.62800
C          7.96000       -4.59000        1.20100
C          7.75800       -5.23700       -0.15700
H          0.77500        0.16300       -1.35500
H          0.79200       -0.04300        0.41300
H          0.67300       -1.45700       -0.62700
H          3.09000        0.41900       -0.45000
H          2.97200       -1.01900       -1.50900
H          4.99100       -0.75000        0.23200
H          4.33800       -3.50600        1.48100
H          8.28700       -5.34200        1.93300
H          8.72900       -3.81400        1.16400
H          7.00200       -6.02900       -0.09500
H          8.69000       -5.66700       -0.53000
H          7.38500       -4.50400       -0.87900
