28
1002-57-9.pdb
N          1.04200       -0.03000       -0.03500
C          2.49800       -0.02700       -0.02900
C          3.02600       -0.51300       -1.37500
C          4.55400       -0.51800       -1.38700
C          5.08100       -1.00200       -2.73400
C          6.60800       -1.01100       -2.76000
C          7.11800       -1.50000       -4.11700
C          8.65000       -1.51900       -4.17200
C          9.15900       -1.99800       -5.50800
O         10.51500       -2.02900       -5.58500
O          8.45900       -2.33900       -6.45000
H          0.69900        0.25300        0.88200
H          0.70200       -0.97800       -0.18800
H          2.86300       -0.67500        0.77600
H          2.85700        0.98800        0.17100
H          2.65600        0.13700       -2.17900
H          2.65500       -1.52500       -1.58200
H          4.92700       -1.17100       -0.58800
H          4.92900        0.49200       -1.18400
H          4.70200       -0.35100       -3.53200
H          4.70200       -2.01200       -2.93500
H          6.98700       -1.66300       -1.96400
H          6.98700       -0.00200       -2.56200
H          6.72200       -0.85100       -4.90900
H          6.72200       -2.50600       -4.31200
H          9.02900       -2.19000       -3.39400
H          9.02900       -0.50800       -3.99900
H         10.98000       -1.73900       -4.77800
