16
100243-39-8.pdb
O          2.99600        0.18100       -1.25900
C          2.47100       -0.09400        0.03200
C          3.00200       -1.44200        0.50600
C          3.32400       -1.23700        1.96800
N          3.84500        0.15900        1.99600
C          2.99100        0.94100        1.04100
H          2.53500       -0.38400       -1.91000
H          1.37800       -0.06700       -0.01300
H          3.90800       -1.72400       -0.04700
H          2.27200       -2.24400        0.35700
H          4.09600       -1.90700        2.35200
H          2.43200       -1.26600        2.60100
H          4.81800        0.17600        1.66100
H          3.84400        0.56500        2.94200
H          3.60900        1.73200        0.60800
H          2.17600        1.36700        1.63500
