12
1003-61-8.pdb
N          2.07100        0.11300       -0.13800
C          0.76100       -0.15700       -0.06600
S         -0.41400        1.09600       -0.00800
C         -1.65400       -0.07900        0.01700
C         -3.04000        0.29600        0.04300
O         -3.97700       -0.49800        0.05900
C         -1.09800       -1.33900        0.00500
N          0.28300       -1.37700       -0.03200
H          2.40800        1.03200        0.11900
H          2.70400       -0.65300        0.06200
H         -3.25000        1.38000        0.04800
H         -1.65700       -2.26800        0.01700
