21
10031-82-0.pdb
C          0.94500       -0.57400       -0.13200
C          2.43700       -0.83500       -0.03800
O          3.01800       -0.63400       -1.32600
C          4.36400       -0.85900       -1.42900
C          5.21000       -1.23000       -0.38100
C          6.57100       -1.44000       -0.61500
C          7.09100       -1.27600       -1.90100
C          8.52900       -1.50400       -2.15000
O          9.29900       -1.83800       -1.25700
C          6.25700       -0.90000       -2.95500
C          4.89600       -0.69200       -2.71300
H          0.47100       -0.68800        0.84700
H          0.47600       -1.27100       -0.83500
H          0.75100        0.43800       -0.50400
H          2.59300       -1.86900        0.29200
H          2.87400       -0.13800        0.68600
H          4.84500       -1.36700        0.63100
H          7.22100       -1.73100        0.20700
H          8.87800       -1.35900       -3.18500
H          6.64600       -0.76700       -3.96000
H          4.24000       -0.39900       -3.53100
