16
1003-73-2.pdb
C          0.92900       -0.07700        0.07800
C          2.42000        0.03400        0.09900
C          3.09300        1.19800        0.02600
C          4.53800        1.21400        0.14300
C          5.23700        0.06600        0.09700
N          4.57100       -1.19200       -0.16200
O          5.24900       -2.22600        0.36600
C          3.18900       -1.19200        0.24100
H          0.45000        0.90800        0.04300
H          0.56400       -0.59000        0.97400
H          0.59900       -0.63900       -0.80200
H          2.57900        2.15100       -0.05800
H          5.03000        2.16300        0.33100
H          6.31100        0.05500        0.24700
H          4.54000       -1.23700       -1.20300
H          2.77200       -2.05800        0.74200
