17
10039-54-0.pdb
N          0.20100       -0.62000       -1.65800
O          0.96700       -1.83000       -1.57600
N          1.57000       -0.07700        1.90700
O          2.40400        0.72200        2.75700
O          1.54500        1.04600       -0.45600
S          2.97800        0.65300       -0.52200
O          3.54700        0.98000       -1.80800
O          3.64500        1.22800        0.64400
O          2.86500       -0.80800       -0.31900
H         -0.63900       -0.65700       -1.07700
H         -0.07900       -0.41800       -2.62200
H          0.75900        0.21700       -1.33300
H          1.86800       -1.53700       -1.24800
H          1.23200        0.53200        1.12300
H          0.80800       -0.56400        2.37100
H          2.17600       -0.72800        1.34900
H          3.06900        1.09500        2.10100
