15
1003-56-1.pdb
C          1.06000        0.07800        0.02400
C          2.54900        0.16000       -0.05600
C          3.24600        1.31000       -0.08500
C          4.68700        1.31100       -0.19200
C          5.35100        0.15300       -0.25300
N          4.66800       -1.03500       -0.20900
C          3.29900       -1.13500       -0.11300
O          2.73000       -2.22100       -0.07700
H          0.60300        1.07100        0.09800
H          0.75100       -0.49600        0.90300
H          0.65800       -0.40800       -0.87000
H          2.74600        2.27300       -0.04000
H          5.20600        2.26300       -0.23100
H          6.43000        0.09600       -0.33900
H          5.16800       -1.91400       -0.24900
