17
1004-36-0.pdb
C          0.97500        0.12900       -0.01000
C          2.46600        0.01900       -0.01000
C          3.10400       -1.15900       -0.00800
C          4.57600       -1.17600       -0.00800
O          5.20500       -2.22600       -0.00700
C          5.25600        0.13000       -0.00900
C          4.51900        1.24900       -0.01100
C          5.12600        2.61500       -0.01400
O          3.13100        1.23800       -0.01100
H          0.49300       -0.85400       -0.01200
H          0.63400        0.67100       -0.89900
H          0.63300        0.66900        0.87800
H          2.60100       -2.11600       -0.00700
H          6.33800        0.12200       -0.00900
H          6.22100        2.57600       -0.01300
H          4.81100        3.17400        0.87300
H          4.81200        3.17000       -0.90400
