27
1007-26-7.pdb
C          2.89500       -0.53900       -1.60900
C          2.54200        0.00700       -0.21600
C          2.96400        1.48400       -0.13200
C          1.01100       -0.07200       -0.04300
C          3.18900       -0.84000        0.91500
C          4.69900       -0.88300        0.98300
C          5.40500        0.05700        1.74700
C          6.79700       -0.01000        1.85100
C          7.49700       -1.01800        1.19200
C          6.80900       -1.95500        0.42600
C          5.41700       -1.88800        0.32100
H          2.37000        0.01900       -2.39300
H          2.60900       -1.59200       -1.70600
H          3.96700       -0.45800       -1.81800
H          2.40600        2.09400       -0.85200
H          4.02700        1.61500       -0.35800
H          2.77400        1.89500        0.86600
H          0.49300        0.56300       -0.77100
H          0.70600        0.25600        0.95700
H          0.65000       -1.09700       -0.18200
H          2.82200       -1.87400        0.84600
H          2.82200       -0.48300        1.88800
H          4.87400        0.84500        2.27700
H          7.33100        0.72100        2.45100
H          8.57900       -1.07500        1.28100
H          7.35300       -2.74400       -0.08600
H          4.89500       -2.63500       -0.27300
