21
1008-89-5.pdb
C          1.40000       -0.21300        0.04700
C          0.53000       -1.29800        0.01800
C         -0.85200       -1.08700       -0.04300
C         -1.39800        0.21000       -0.07300
C         -0.49200        1.28800       -0.04200
C          0.89100        1.08100        0.01800
C         -2.85400        0.44900       -0.16600
C         -3.80400       -0.42800        0.36200
C         -5.16000       -0.15300        0.19400
C         -5.54200        0.99200       -0.49000
C         -4.54700        1.82400       -0.96800
N         -3.22700        1.58100       -0.81900
H          2.47400       -0.37500        0.08400
H          0.92300       -2.31100        0.03000
H         -1.49900       -1.96000       -0.09300
H         -0.86800        2.31000       -0.07200
H          1.56400        1.93400        0.03400
H         -3.50600       -1.31600        0.90800
H         -5.90900       -0.83100        0.59200
H         -6.58800        1.23300       -0.64300
H         -4.79000        2.73600       -1.50600
