35
101-72-4.pdb
C          1.18500        0.18300        0.28200
C          2.49800       -0.52700       -0.06500
C          2.22200       -2.02100       -0.24500
N          3.03500        0.06400       -1.29800
C          4.41700        0.12400       -1.51200
C          5.31400       -0.80500       -0.99100
C          6.67100       -0.76800       -1.31800
C          7.17700        0.18900       -2.19800
N          8.53400        0.20700       -2.57900
C          9.40200       -0.90600       -2.64000
C          8.94300       -2.15600       -3.08500
C          9.78200       -3.27000       -3.10500
C         11.10600       -3.14400       -2.69700
C         11.58800       -1.90300       -2.28100
C         10.74200       -0.78900       -2.25600
C          6.29500        1.13700       -2.71600
C          4.93100        1.08600       -2.39800
H          0.75500       -0.22300        1.20400
H          0.44700        0.06900       -0.51900
H          1.35000        1.25500        0.43200
H          3.18600       -0.36800        0.77400
H          1.67600       -2.22100       -1.17200
H          1.63200       -2.41100        0.59300
H          3.14300       -2.60800       -0.27800
H          2.58900        0.94500       -1.54400
H          4.98700       -1.59800       -0.33200
H          7.32700       -1.51400       -0.87700
H          8.99000        1.07700       -2.32200
H          7.91400       -2.26800       -3.42200
H          9.39700       -4.23000       -3.43800
H         11.76100       -4.01100       -2.70700
H         12.62400       -1.80400       -1.96900
H         11.13800        0.16400       -1.91600
H          6.65300        1.89100       -3.41200
H          4.26500        1.80900       -2.86300
