21
101-41-7.pdb
C          2.90700        1.30600       -2.45200
O          3.41700        0.60200       -1.31800
C          3.89100       -0.65100       -1.59700
O          3.88700       -1.16200       -2.70700
C          4.39400       -1.27700       -0.31300
C          5.01400       -2.64400       -0.47700
C          6.38000       -2.77500       -0.76600
C          6.95600       -4.03900       -0.90500
C          6.17400       -5.18300       -0.76500
C          4.81200       -5.06500       -0.49100
C          4.23300       -3.80200       -0.35100
H          2.72700        2.34200       -2.15200
H          1.95600        0.86500       -2.76900
H          3.62800        1.30700       -3.27500
H          3.55300       -1.34400        0.38800
H          5.13600       -0.60300        0.13100
H          7.00600       -1.89400       -0.88500
H          8.01600       -4.13100       -1.12600
H          6.62300       -6.16700       -0.87500
H          4.20000       -5.95700       -0.38900
H          3.16800       -3.73000       -0.14200
