23
101-84-8.pdb
O          1.13200        0.11000        0.08800
C          0.40500        1.27500       -0.01300
C          0.83700        2.42900       -0.67200
C          0.02000        3.56100       -0.70900
C         -1.24600        3.52800       -0.12900
C         -1.70400        2.36000        0.47900
C         -0.87900        1.23600        0.53500
C          2.50600        0.14900        0.14600
C          3.24400        1.14100        0.79700
C          4.63900        1.09400        0.78700
C          5.29900        0.03000        0.17300
C          4.56400       -0.99400       -0.42300
C          3.17000       -0.93500       -0.43500
H          1.80500        2.46200       -1.16500
H          0.37500        4.46700       -1.19500
H         -1.88100        4.41000       -0.16100
H         -2.70100        2.32500        0.91000
H         -1.23800        0.32500        1.00700
H          2.74700        1.96100        1.30900
H          5.21200        1.88600        1.26300
H          6.38500       -0.00700        0.16900
H          5.07600       -1.83700       -0.88000
H          2.59800       -1.73400       -0.89900
