39
101-01-9.pdb
N          1.02300        0.04300       -0.18500
C          0.27700       -1.14500       -0.30300
C          0.71500       -2.37500        0.20200
C         -0.05100       -3.53200        0.03400
C         -1.25500       -3.47700       -0.66400
C         -1.70100       -2.26200       -1.17800
C         -0.94400       -1.10400       -0.98800
C          2.38900        0.13900       -0.03600
N          2.77000        1.10400        0.86800
C          2.32400        2.44300        0.96500
C          2.59100        3.15200        2.14600
C          2.06300        4.42900        2.35600
C          1.25300        5.01600        1.38800
C          1.00000        4.34000        0.19800
C          1.54100        3.06900       -0.01400
N          3.17400       -0.69100       -0.66000
C          4.57200       -0.65100       -0.65500
C          5.25000       -1.86800       -0.78100
C          6.64400       -1.91200       -0.87500
C          7.38000       -0.73100       -0.82700
C          6.72300        0.49100       -0.72200
C          5.32700        0.52800       -0.66300
H          0.46600        0.82400        0.12900
H          1.65200       -2.44100        0.74900
H          0.30000       -4.47700        0.44000
H         -1.83900       -4.38000       -0.81500
H         -2.63100       -2.21600       -1.73900
H         -1.29800       -0.16800       -1.41200
H          3.70100        0.97800        1.24800
H          3.19700        2.70200        2.93000
H          2.27100        4.95800        3.28300
H          0.82100        5.99900        1.55900
H          0.37800        4.79800       -0.56700
H          1.35200        2.58200       -0.96800
H          4.67500       -2.79000       -0.84500
H          7.14800       -2.86500       -1.00200
H          8.46300       -0.76300       -0.89500
H          7.29000        1.41700       -0.71100
H          4.83800        1.49600       -0.66800
