21
101-39-3.pdb
C          0.96700        0.14500       -0.74200
C          2.46300        0.13800       -0.85300
C          3.11500        1.37400       -1.37300
O          2.48300        2.37400       -1.69600
C          3.17800       -0.94000       -0.47800
C          4.63700       -1.06800       -0.47100
C          5.35700       -0.71200        0.67600
C          6.74700       -0.83300        0.69800
C          7.42400       -1.31500       -0.42100
C          6.71100       -1.67900       -1.56300
C          5.31900       -1.55500       -1.59000
H          0.52500        1.11300       -0.99300
H          0.66200       -0.08900        0.28400
H          0.53000       -0.60200       -1.41400
H          4.21200        1.34900       -1.46300
H          2.65900       -1.82400       -0.11000
H          4.84100       -0.34600        1.56000
H          7.30200       -0.55500        1.59100
H          8.50700       -1.40900       -0.40200
H          7.24000       -2.06400       -2.43100
H          4.77700       -1.84800       -2.48600
