33
101-37-1.pdb
C          4.06600        2.43200       -0.67500
C          3.68600        1.41400        0.11100
C          4.57200        0.76500        1.13500
O          4.59200       -0.63800        0.88300
C          5.46400       -1.30300        1.72000
N          5.22100       -2.60100        1.86800
C          6.11600       -3.23500        2.61000
O          5.88400       -4.58000        2.82600
C          7.08300       -5.26100        3.19600
C          6.75600       -6.69100        3.51100
C          7.09900       -7.30300        4.65100
N          7.18400       -2.68100        3.17000
C          7.31900       -1.38400        2.94600
O          8.39700       -0.72100        3.49400
C          9.46200       -1.61700        3.80100
C         10.56600       -0.83200        4.44100
C         11.08800       -1.11900        5.64300
N          6.48900       -0.63600        2.24000
H          3.37900        2.86700       -1.39500
H          5.06600        2.85300       -0.62200
H          2.67600        1.02300        0.02400
H          4.15300        0.95100        2.13100
H          5.57600        1.20400        1.07200
H          7.55100       -4.80400        4.07800
H          7.78900       -5.24100        2.35600
H          6.22300       -7.24900        2.74400
H          7.63400       -6.79100        5.44500
H          6.84900       -8.34500        4.82300
H          9.84400       -2.07000        2.87700
H          9.13500       -2.40900        4.48700
H         10.95600        0.01000        3.87700
H         10.72700       -1.95200        6.23900
H         11.89000       -0.51800        6.05900
