23
1011-41-2.pdb
O          1.20700       -0.28000        0.33900
C          2.14100        0.41900       -0.04900
C          2.98100        1.20300        0.81100
S          4.21500        2.18200        0.16600
C          4.68100        2.66400        1.76700
N          3.95400        2.12300        2.72100
C          2.96900        1.31300        2.18200
N          5.76400        3.46300        1.97200
C          6.48700        3.38300        3.24800
C          6.23000        4.61000        4.13100
O          6.46400        5.83500        3.41700
C          5.58900        5.91100        2.28200
C          5.85500        4.76300        1.29500
H          2.37300        0.45800       -1.12800
H          2.27100        0.81000        2.84100
H          7.55700        3.34400        3.00600
H          6.25900        2.46500        3.80200
H          6.91400        4.59500        4.98500
H          5.20700        4.61500        4.52300
H          5.76900        6.87100        1.78800
H          4.55000        5.90500        2.63100
H          6.87000        4.85900        0.89400
H          5.16100        4.85400        0.45300
