11
10111-08-7.pdb
O          2.47700       -1.17100       -0.17900
C          2.20600        0.02700       -0.13100
C          3.01400        1.06500       -0.71400
N          4.18300        0.85700       -1.40200
C          4.65500        2.07800       -1.79800
C          3.73800        2.98600       -1.32500
N          2.72400        2.35000       -0.65600
H          1.29400        0.37900        0.38200
H          4.60000       -0.04900       -1.57200
H          5.57000        2.19100       -2.36200
H          3.75400        4.06400       -1.43100
