22
10112-15-9.pdb
C          0.88500        1.01000        0.10500
C          2.40100        1.08900        0.11800
N          2.94200        0.36800        1.26300
C          4.31700        0.37500        1.53300
C          5.22500        1.10500        0.74800
C          6.58400        1.20600        1.08200
C          7.07400        0.60300        2.23500
C          6.20900       -0.11800        3.04900
C          4.85500       -0.23200        2.68700
N          4.00700       -1.02400        3.56000
O          3.37400       -1.95800        3.04200
O          4.01100       -0.74500        4.76800
H          0.48800        1.59700       -0.73000
H          0.45800        1.40500        1.03200
H          0.54400       -0.02400       -0.01300
H          2.68200        2.14800        0.17900
H          2.79300        0.67400       -0.81700
H          2.50600       -0.54200        1.43700
H          4.90200        1.60700       -0.15900
H          7.25300        1.76700        0.43300
H          8.12500        0.69900        2.49900
H          6.58600       -0.58500        3.95600
