14
10128-71-9.pdb
O         -2.28600        0.11500        0.21700
C         -0.93700       -0.01600        0.08100
C         -0.14100        1.13100        0.02300
N          1.21200        1.13500       -0.04600
C          1.79400       -0.08100       -0.04500
C          1.09200       -1.27800        0.00200
C         -0.31500       -1.26300        0.05300
C         -1.04300       -2.58800        0.06100
O         -2.21800       -2.64100       -0.42000
O         -0.38500       -3.58700        0.50100
H         -2.56600        0.96600       -0.14900
H         -0.58800        2.11700        0.05000
H          2.87900       -0.08100       -0.08200
H          1.62100       -2.22400       -0.00900
