22
10154-75-3.pdb
O          1.55700        0.90200       -0.77600
S          2.48600       -0.00900       -0.13300
O          2.07500       -1.36100        0.19900
C          3.91500       -0.13800       -1.18100
C          3.48900       -0.69600       -2.53600
C          4.68400       -0.83000       -3.46600
N          5.67400       -0.94200       -4.23800
C          3.03100        0.76900        1.37000
C          2.96900        2.16300        1.48900
C          3.23700        2.76400        2.72100
C          3.55400        1.97800        3.83000
C          3.61600        0.58900        3.70900
C          3.35400       -0.02000        2.47800
H          4.63900       -0.79400       -0.68700
H          4.35200        0.86000       -1.28400
H          2.75300       -0.03800       -3.01200
H          3.02100       -1.68000       -2.42200
H          2.67200        2.78600        0.64800
H          3.16900        3.84500        2.82700
H          3.72900        2.44600        4.79600
H          3.84000       -0.02100        4.58100
H          3.36200       -1.10600        2.41000
