21
10160-87-9.pdb
C          0.80100       -0.31000        0.12300
C          2.31400       -0.13700        0.13100
O          2.91700       -1.33800        0.60700
C          4.34700       -1.28200        0.59100
O          4.83200       -0.18700        1.38600
C          6.25500       -0.06200        1.35900
C          6.69200        1.07300        2.26900
C          4.85300       -2.57800        1.20300
C          5.28800       -3.69000        1.72800
H          0.31100        0.61800       -0.19200
H          0.43400       -0.58100        1.11700
H          0.50300       -1.11100       -0.56000
H          2.57000        0.69500        0.79200
H          2.66500        0.08200       -0.88100
H          4.69800       -1.18500       -0.44300
H          6.58500        0.13300        0.33300
H          6.73400       -0.97900        1.71800
H          6.20500        2.01300        1.97900
H          7.77500        1.20700        2.22500
H          6.40700        0.87000        3.30600
H          5.63200       -4.59900        2.16400
