28
10172-89-1.pdb
C          6.90000       -2.07900       -0.31800
C          6.34100       -0.69400       -0.13300
O          6.76400        0.11900        0.68600
N          5.31200       -0.39300       -0.98800
C          4.60800        0.88200       -0.91600
C          3.11900        0.75300       -1.25800
C          2.65700        0.29800       -2.62500
C          3.50500        0.03900       -3.70800
C          2.98500       -0.25000       -4.97100
C          1.60900       -0.30000       -5.16900
C          0.75000       -0.08900       -4.09500
C          1.26900        0.20300       -2.83500
C          5.34300        2.01400       -1.67600
O          6.42900        2.46800       -0.99800
O          5.03600        2.46300       -2.77400
H          7.58900       -2.31600        0.49700
H          7.43300       -2.13400       -1.27000
H          6.08700       -2.81400       -0.30800
H          5.12400       -1.01300       -1.76700
H          4.62400        1.20500        0.13700
H          2.68600        0.05000       -0.53000
H          2.65200        1.72900       -1.07300
H          4.58500        0.11100       -3.62300
H          3.66100       -0.40000       -5.80900
H          1.20900       -0.48800       -6.16100
H         -0.32600       -0.12300       -4.24500
H          0.57900        0.39100       -2.01400
H          6.61300        1.95800       -0.17500
