20
1019-52-9.pdb
O          3.15000        1.14000        0.38000
C          2.40400        0.07900        0.01900
O          1.22100        0.15100       -0.26300
C          3.15500       -1.19800       -0.05700
C          2.74100       -2.16600       -0.98400
C          3.43200       -3.38900       -1.09000
C          4.53800       -3.65900       -0.26800
O          5.29500       -4.79500       -0.35200
C          4.90200       -2.69000        0.67300
C          4.22500       -1.46800        0.79700
N          6.03100       -2.90900        1.55800
O          5.95300       -3.84400        2.36500
O          6.94500       -2.07400        1.49500
N          2.97600       -4.36400       -2.08800
O          2.00600       -4.06600       -2.79400
O          3.60300       -5.43300       -2.16400
H          4.11700        1.02300        0.40200
H          1.88000       -1.95100       -1.62100
H          4.92900       -5.42600       -1.01000
H          4.52500       -0.76200        1.56800
