20
102-32-9.pdb
O          3.58600        1.24300       -3.27600
C          2.75700        0.65800       -2.38500
O          1.66600        0.21900       -2.72800
C          3.21500        0.66100       -0.94300
C          4.70700        0.55700       -0.73000
C          5.33600       -0.70100       -0.69500
C          6.71800       -0.80400       -0.51000
C          7.47300        0.35400       -0.37700
O          8.82700        0.32000       -0.19600
C          6.85900        1.60100       -0.42600
O          7.60700        2.73700       -0.31900
C          5.48600        1.71500       -0.59000
H          4.43000        1.56300       -2.90200
H          2.73500       -0.18700       -0.44000
H          2.83000        1.57000       -0.46700
H          4.74800       -1.61200       -0.80400
H          7.17900       -1.78700       -0.47600
H          9.10100       -0.61100       -0.11900
H          8.52600        2.41800       -0.20900
H          5.03500        2.70500       -0.60700
