24
102-01-2.pdb
C          2.47400        1.52300        0.46500
C          2.51900        0.30100        1.34800
O          1.84700        0.24300        2.38000
C          3.35000       -0.88100        0.91100
C          4.80200       -0.54500        0.70800
O          5.12600        0.31200       -0.11100
N          5.68000       -1.29700        1.47300
C          7.08200       -1.12500        1.51400
C          7.71800        0.04100        1.07800
C          9.11000        0.14200        1.08700
C          9.88300       -0.92300        1.54100
C          9.26000       -2.07600        2.01500
C          7.86400       -2.17200        2.01500
H          1.76500        2.24600        0.87900
H          2.14100        1.24400       -0.53800
H          3.45200        2.00600        0.42300
H          2.94600       -1.26400       -0.03300
H          3.23300       -1.67600        1.65500
H          5.31700       -2.12300        1.93400
H          7.15300        0.90200        0.73300
H          9.58500        1.05300        0.73300
H         10.96700       -0.85000        1.52800
H          9.86400       -2.90500        2.37300
H          7.40700       -3.08800        2.38000
