29
102-06-7.pdb
N          1.12400        0.07200        0.04500
C          2.47600       -0.08600        0.05200
N          2.87600       -1.35600       -0.26900
C          2.36800       -2.17500       -1.30000
C          1.60100       -1.68200       -2.36500
C          1.03500       -2.54500       -3.30800
C          1.22400       -3.92000       -3.19300
C          1.99700       -4.42700       -2.15200
C          2.57100       -3.55900       -1.21800
N          3.18500        0.92600        0.44800
C          4.58800        0.91600        0.48600
C          5.38200        0.39400       -0.54100
C          6.77600        0.45800       -0.47300
C          7.39300        1.10000        0.59700
C          6.61900        1.66900        1.60300
C          5.22300        1.57300        1.54700
H          0.61800       -0.77500        0.27000
H          0.84200        0.87000        0.60400
H          3.83300       -1.58300       -0.02700
H          1.44000       -0.61200       -2.47900
H          0.44000       -2.14100       -4.12200
H          0.76500       -4.59400       -3.91200
H          2.14200       -5.50000       -2.05600
H          3.15100       -3.97700       -0.39900
H          4.91900       -0.04900       -1.41600
H          7.37500        0.02700       -1.27100
H          8.47700        1.17300        0.63600
H          7.09100        2.20400        2.42100
H          4.62100        2.03600        2.32500
