30
102-04-5.pdb
O          1.06800        0.15100       -0.14800
C          2.29700        0.08100       -0.05300
C          2.95800       -0.87700        0.92000
C          3.26700       -2.25600        0.37800
C          4.35400       -2.96700        0.90700
C          4.62200       -4.27900        0.50400
C          3.80100       -4.90000       -0.43500
C          2.71400       -4.21100       -0.96500
C          2.44100       -2.90200       -0.55800
C          3.19800        0.94000       -0.91500
C          3.57300        2.26900       -0.30400
C          4.92100        2.60400       -0.10900
C          5.28100        3.87700        0.34100
C          4.30000        4.83200        0.60400
C          2.95500        4.50400        0.43700
C          2.59200        3.23100       -0.01200
H          2.29700       -0.98400        1.78900
H          3.87700       -0.40000        1.28100
H          4.99500       -2.51200        1.66100
H          5.46100       -4.81900        0.93400
H          4.00200       -5.92400       -0.73900
H          2.06300       -4.70200       -1.68700
H          1.56100       -2.40700       -0.96500
H          2.68300        1.12500       -1.86600
H          4.09100        0.35800       -1.17100
H          5.70700        1.88600       -0.33000
H          6.33100        4.13100        0.46800
H          4.58300        5.82900        0.92600
H          2.18800        5.24900        0.63800
H          1.53700        3.00300       -0.15400
