28
102-07-8.pdb
O          0.99000       -0.23800        0.18000
C          2.16400        0.02900       -0.04400
N          2.80200        1.18900        0.37700
C          2.21400        2.25400        1.09800
C          0.96600        2.17600        1.72000
C          0.42300        3.28700        2.37200
C          1.12700        4.48600        2.41400
C          2.38400        4.57000        1.82000
C          2.92800        3.45700        1.17200
N          3.02600       -0.76800       -0.78400
C          2.69400       -1.94300       -1.49800
C          1.39800       -2.45100       -1.60500
C          1.14300       -3.61000       -2.34500
C          2.18100       -4.26900       -2.99200
C          3.47800       -3.77100       -2.89900
C          3.73400       -2.61400       -2.15500
H          3.71300        1.37000       -0.01200
H          0.38200        1.26100        1.72000
H         -0.55600        3.20900        2.83800
H          0.69600        5.35200        2.91000
H          2.93500        5.50600        1.85100
H          3.90600        3.55500        0.70800
H          4.00100       -0.51900       -0.76900
H          0.55000       -1.97100       -1.12700
H          0.12500       -3.98800       -2.41300
H          1.97800       -5.16700       -3.56900
H          4.29100       -4.28200       -3.40800
H          4.75600       -2.24800       -2.10400
