30
102-13-6.pdb
C          1.95200       -1.50000        0.91400
C          2.11700       -1.60400       -0.60000
C          0.86000       -1.10300       -1.31100
C          3.33800       -0.81400       -1.09300
O          4.58900       -1.27300       -0.55600
C          5.11200       -2.38300       -1.15200
O          4.49600       -3.14500       -1.88600
C          6.59200       -2.49800       -0.87600
C          6.96500       -3.25900        0.36700
C          6.59600       -4.60200        0.52900
C          7.01000       -5.31800        1.65400
C          7.80100       -4.70400        2.62300
C          8.17800       -3.37200        2.47000
C          7.76300       -2.65400        1.34800
H          1.08600       -2.08500        1.24600
H          1.79800       -0.46400        1.22800
H          2.83400       -1.88900        1.43400
H          2.24700       -2.66600       -0.84100
H          0.67000       -0.04700       -1.08700
H         -0.02000       -1.67800       -1.00400
H          0.96100       -1.20400       -2.39700
H          3.24300        0.23800       -0.79800
H          3.39400       -0.82000       -2.18900
H          7.01300       -1.48400       -0.86100
H          7.05500       -2.98200       -1.74500
H          5.99500       -5.10500       -0.22700
H          6.72400       -6.36100        1.76900
H          8.12900       -5.26500        3.49500
H          8.80200       -2.89400        3.22100
H          8.08100       -1.61900        1.24000
