27
10202-75-2.pdb
O          0.96900        0.02800       -0.00800
C          2.40700       -0.11200        0.00500
C          2.81600       -1.05500        1.17300
C          2.25600       -2.45800        1.08700
C          1.45000       -2.99500        2.01100
C          2.81700       -0.65300       -1.39500
C          4.29300       -0.86400       -1.61100
C          5.00700       -0.23200       -2.55000
C          3.00300        1.31400        0.20300
C          2.58700        2.00500        1.47800
C          3.43800        2.44800        2.41100
H          0.58900       -0.86800       -0.01300
H          2.48800       -0.61700        2.12400
H          3.90900       -1.12900        1.22900
H          2.54800       -3.06500        0.23200
H          1.14600       -2.44100        2.89400
H          1.08200       -4.01200        1.90800
H          2.41900        0.02700       -2.16000
H          2.30200       -1.60200       -1.59100
H          4.79700       -1.58600       -0.97100
H          4.55400        0.48900       -3.22400
H          6.06900       -0.42500       -2.66700
H          2.66700        1.95600       -0.62200
H          4.09800        1.27200        0.15000
H          1.51700        2.15300        1.61900
H          4.51300        2.32800        2.30600
H          3.07300        2.94800        3.30300
