26
10205-34-2.pdb
C          4.82300        2.80200        0.98600
O          4.57600        1.45000        0.56700
C          4.99000        0.46300        1.39900
O          5.56100        0.61700        2.47100
C          4.68200       -0.90400        0.80500
C          3.17900       -1.05100        0.58100
C          5.23400       -1.95700        1.77500
N          5.02600       -3.40200        1.31700
C          5.68300       -3.73800        0.00500
C          5.46000       -4.35800        2.40100
H          5.13900        3.37100        0.10700
H          5.60400        2.88400        1.74900
H          3.89000        3.23300        1.36200
H          5.21700       -0.96800       -0.14900
H          2.63200       -0.96700        1.52500
H          2.93400       -2.01400        0.12300
H          2.80000       -0.27100       -0.08700
H          4.73100       -1.87800        2.74700
H          6.31200       -1.83300        1.93300
H          4.01700       -3.56000        1.20100
H          6.67100       -3.27000       -0.02800
H          5.04000       -3.36400       -0.79800
H          5.77000       -4.82500       -0.07800
H          6.52600       -4.21000        2.59100
H          5.25600       -5.37600        2.06000
H          4.86500       -4.14600        3.29500
