14
10229-10-4.pdb
C          0.93700       -0.03500        0.06900
C          2.45700       -0.03500        0.06900
C          3.76100       -0.03500        0.06900
C          5.28100       -0.03500        0.06900
C          5.80300       -0.95600       -1.03000
O          5.36300       -0.52900       -2.31600
H          0.56400        0.91700        0.45700
H          0.56400       -0.84700        0.70000
H          0.56400       -0.17500       -0.94900
H          5.64500       -0.36800        1.04700
H          5.63400        0.98900       -0.09400
H          5.47200       -1.98800       -0.87600
H          6.90000       -0.95100       -1.03600
H          4.38400       -0.55700       -2.30200
