35
102308-32-7.pdb
C          3.89100       -0.11600        1.59600
C          2.84200        0.25500        0.53200
C          2.39800       -0.96300       -0.29700
C          1.60300        0.78400        1.27400
O          3.32000        1.33800       -0.32200
C          4.41000        1.10200       -1.09600
O          5.00300        0.02700       -1.15300
N          4.86300        2.17400       -1.81600
C          5.98700        1.99300       -2.70900
C          5.96200        3.23900       -3.55600
O          5.30600        4.22400       -2.73700
C          4.34800        3.52400       -1.90100
C          2.99000        3.60300       -2.60200
C          4.32600        4.25800       -0.56400
C          7.29000        1.91300       -1.93500
O          8.37900        1.71800       -2.47300
H          3.52100       -0.90200        2.26400
H          4.14700        0.76000        2.20200
H          4.82800       -0.47300        1.16100
H          1.96000       -1.74000        0.33800
H          3.22200       -1.42700       -0.84500
H          1.65700       -0.66500       -1.04700
H          1.20000        0.03000        1.96100
H          0.81000        1.06300        0.57100
H          1.84200        1.68200        1.85300
H          5.88400        1.07500       -3.29700
H          5.35600        3.09300       -4.45800
H          6.94800        3.60700       -3.85500
H          3.01900        3.10700       -3.57900
H          2.71800        4.64800       -2.79600
H          2.19500        3.14000       -2.01200
H          5.30400        4.19700       -0.07100
H          3.57400        3.85300        0.12000
H          4.11800        5.32400       -0.71000
H          7.22700        2.08000       -0.84700
