24
10230-69-0.pdb
C          2.08100       -0.41800       -2.30400
C          2.34900       -0.43200       -0.82100
O          1.80200        0.37700       -0.06800
C          3.28900       -1.49700       -0.29700
S          5.00500       -0.91300       -0.38500
C          5.82800       -2.37000        0.33200
C          7.32500       -2.19000        0.39900
C          7.92700       -1.61300        1.52800
C          9.31000       -1.44100        1.58500
C         10.11000       -1.83800        0.51300
C          9.52400       -2.40400       -0.61700
C          8.13900       -2.57800       -0.67600
H          1.48600        0.46400       -2.56400
H          1.52000       -1.31600       -2.57800
H          3.02100       -0.37800       -2.86000
H          3.16300       -2.40700       -0.89100
H          3.01400       -1.72100        0.73800
H          5.59200       -3.25000       -0.27700
H          5.43400       -2.55900        1.33700
H          7.31900       -1.29000        2.36900
H          9.76700       -0.99200        2.46300
H         11.18600       -1.69900        0.55600
H         10.14300       -2.70500       -1.45600
H          7.69800       -3.01100       -1.57000
