23
10250-48-3.pdb
C          4.49900       -2.30800       -2.45000
O          4.13000       -0.99900       -2.01400
C          4.98200       -0.46400       -1.09700
O          5.96800       -1.02600       -0.63800
C          4.56400        0.94300       -0.73300
C          5.20500        2.04600       -1.60500
C          4.75700        1.92100       -3.07100
C          4.74700        3.41600       -1.06800
C          6.74100        1.98900       -1.53700
H          3.76600       -2.63800       -3.19100
H          4.48600       -3.01000       -1.61200
H          5.48500       -2.28900       -2.92600
H          4.82500        1.08800        0.32400
H          3.46800        1.00100       -0.77300
H          3.66500        1.95200       -3.15500
H          5.10400        0.98500       -3.52200
H          5.16100        2.74000       -3.67800
H          3.65600        3.51000       -1.09700
H          5.16800        4.23600       -1.66100
H          5.06800        3.56000       -0.03000
H          7.13100        1.05100       -1.94500
H          7.09400        2.08200       -0.50400
H          7.19000        2.80500       -2.11700
