20
10264-55-8.pdb
C          1.29300       -0.63900       -0.91900
C          2.35300        0.02200       -0.05200
C          2.97200       -0.83300        1.06600
C          3.65400       -2.11700        0.57900
C          2.66100       -3.25800        0.76600
C          1.72400       -2.72500        1.81300
O          0.85100       -3.39600        2.34500
C          1.98600       -1.28200        2.14800
H          1.00000        0.04500       -1.72300
H          0.39500       -0.87800       -0.34300
H          1.66500       -1.55100       -1.39300
H          1.91700        0.92500        0.39600
H          3.16200        0.36800       -0.70800
H          3.73100       -0.19400        1.53700
H          4.53900       -2.30900        1.19800
H          4.00200       -2.04900       -0.45800
H          3.16200       -4.16200        1.12100
H          2.10100       -3.46900       -0.14700
H          2.45600       -1.24600        3.13600
H          1.05800       -0.70500        2.15200
