27
10284-63-6.pdb
C          0.72600        0.15300       -0.20300
O          2.14600        0.03600       -0.14000
C          2.77100        1.04700        0.66400
C          2.64600        2.45300        0.03700
O          3.15200        3.49700        0.88900
C          3.37300        2.51800       -1.32100
O          3.33600        3.86400       -1.81900
C          4.84700        2.07300       -1.21700
O          5.60000        2.99300       -0.40200
C          4.96700        0.68000       -0.58100
O          4.45600       -0.32400       -1.46200
C          4.26700        0.66200        0.80400
O          4.89500        1.54700        1.73800
H          0.33200       -0.75400       -0.66900
H          0.44300        0.99900       -0.84300
H          0.28700        0.26400        0.79000
H          2.33000        1.05600        1.66700
H          1.59400        2.71700       -0.12300
H          3.72500        3.07600        1.56800
H          2.85200        1.88200       -2.04500
H          3.12900        4.43800       -1.05500
H          5.29300        2.08600       -2.21800
H          5.16100        3.86000       -0.50400
H          6.03200        0.46300       -0.42900
H          3.53700       -0.53000       -1.19200
H          4.32800       -0.35400        1.21100
H          5.64100        1.99200        1.27200
