39
1028-33-7.pdb
C          8.44500        1.56700        3.57800
C          7.53500        1.11300        2.44600
C          7.90700       -0.29300        1.98900
C          7.02000       -0.79800        0.84900
C          7.46500       -2.20700        0.45100
C          6.63400       -2.79800       -0.68500
N          7.07700       -4.14900       -1.03100
C          6.43200       -5.22400       -0.38900
O          5.63600       -5.03600        0.53600
N          6.73000       -6.50800       -0.84800
C          5.97700       -7.65100       -0.37100
C          7.79000       -6.68000       -1.70500
N          8.27500       -7.87200       -2.15500
C          9.32400       -7.54300       -2.88400
N          9.50400       -6.18600       -2.92800
C         10.56100       -5.49500       -3.62000
C          8.50800       -5.62500       -2.17400
C          8.18900       -4.27100       -1.87300
O          8.83600       -3.32100       -2.30400
H          8.17000        2.57200        3.91000
H          9.49100        1.59000        3.25300
H          8.37000        0.89100        4.43600
H          7.62100        1.81500        1.60900
H          6.49400        1.13400        2.78700
H          7.83200       -0.98400        2.83900
H          8.95400       -0.30200        1.66200
H          7.09600       -0.12200       -0.01100
H          5.96900       -0.80600        1.16500
H          7.40900       -2.86600        1.32500
H          8.52000       -2.17300        0.15200
H          6.70700       -2.16400       -1.57600
H          5.57500       -2.82200       -0.39900
H          5.11200       -7.34300        0.22300
H          6.62600       -8.28100        0.24400
H          5.61200       -8.22300       -1.23100
H          9.98200       -8.24200       -3.38600
H         11.20700       -6.22400       -4.11700
H         11.14500       -4.92800       -2.89000
H         10.11700       -4.83000       -4.36300
