29
10287-53-3.pdb
C          1.49100        0.23500        0.79000
C          2.79700       -0.49800        0.54700
O          3.72900       -0.05700        1.54100
C          4.50000        1.00500        1.20600
O          4.66300        1.47000        0.09100
C          5.08500        1.58000        2.44100
C          4.44400        1.44700        3.67400
C          4.97500        2.06400        4.81000
C          6.16600        2.81700        4.77100
C          6.78700        2.92800        3.51300
C          6.25200        2.33200        2.35900
N          6.63400        3.45600        5.91400
C          6.55900        2.76800        7.20500
C          7.68200        4.46800        5.83400
H          0.71400       -0.09700        0.09500
H          1.62800        1.31600        0.67900
H          1.14600        0.06800        1.81600
H          3.16800       -0.33800       -0.47100
H          2.65400       -1.57500        0.68300
H          3.50700        0.90500        3.76200
H          4.40200        1.99100        5.72900
H          7.70700        3.49100        3.39600
H          6.74900        2.47200        1.40200
H          5.82300        1.96100        7.25400
H          6.29500        3.48900        7.98600
H          7.53100        2.33100        7.45900
H          7.65000        5.04800        4.90600
H          8.67300        4.01300        5.94000
H          7.55000        5.19200        6.64600
