27
103-16-2.pdb
O          1.74600       -0.39900       -2.46800
C          0.52500       -0.24400       -1.88400
C         -0.13300        0.98200       -1.88300
C         -1.39600        1.08100       -1.29300
C         -1.99900       -0.04300       -0.72200
O         -3.26600        0.14800       -0.23400
C         -4.04900       -1.04600       -0.12400
C         -5.52700       -0.73900       -0.07600
C         -6.43000       -1.63400       -0.67300
C         -7.80400       -1.40500       -0.61200
C         -8.29100       -0.28600        0.05700
C         -7.40700        0.60300        0.66700
C         -6.03000        0.37600        0.60600
C         -1.30500       -1.25500       -0.68900
C         -0.04600       -1.35800       -1.28400
H          2.01300        0.44900       -2.85700
H          0.31000        1.86100       -2.33900
H         -1.92300        2.03200       -1.29800
H         -3.77400       -1.58000        0.79300
H         -3.87100       -1.68800       -0.99600
H         -6.06700       -2.51800       -1.19300
H         -8.49100       -2.10300       -1.08200
H         -9.36200       -0.10700        0.10800
H         -7.78900        1.47500        1.19200
H         -5.35000        1.07600        1.09000
H         -1.71500       -2.13900       -0.21400
H          0.48100       -2.30700       -1.28500
