19
103-81-1.pdb
N          3.41400       -0.47800       -3.04300
C          2.70900       -1.11400       -2.05800
O          1.70300       -1.75800       -2.34500
C          3.16200       -0.89700       -0.62700
C          4.65100       -0.71500       -0.43900
C          5.21800        0.56800       -0.44900
C          6.59100        0.73600       -0.26900
C          7.40900       -0.37500       -0.07400
C          6.85900       -1.65600       -0.08300
C          5.48700       -1.82800       -0.27100
H          3.13900       -0.67800       -3.99600
H          4.35700       -0.15200       -2.88600
H          2.83500       -1.76100       -0.03600
H          2.62600       -0.02700       -0.23200
H          4.59100        1.44500       -0.60000
H          7.02200        1.73400       -0.27100
H          8.47600       -0.24300        0.08700
H          7.49900       -2.52200        0.06400
H          5.07400       -2.83400       -0.27600
