22
103-89-9.pdb
C          0.97300        0.05300        0.16400
C          2.43600        0.37800        0.01100
O          2.80800        1.19800       -0.82100
N          3.23200       -0.33900        0.88900
C          4.63600       -0.26500        0.99800
C          5.40100        0.74300        0.41100
C          6.79600        0.72100        0.49800
C          7.44900       -0.30800        1.17900
C          8.94800       -0.38000        1.20000
C          6.68400       -1.29600        1.80600
C          5.28700       -1.26700        1.72500
H          0.43100        0.40300       -0.72000
H          0.58000        0.55600        1.05000
H          0.82300       -1.02700        0.24900
H          2.78000       -1.06700        1.42800
H          4.94100        1.56900       -0.12300
H          7.36300        1.51400        0.01400
H          9.39800        0.51200        0.75100
H          9.28700       -1.25000        0.63000
H          9.31300       -0.45700        2.23100
H          7.17000       -2.10500        2.34600
H          4.72400       -2.06000        2.21000
