20
103-90-2.pdb
C          1.00500       -0.12100        0.16100
C          2.47300        0.12700        0.39300
O          2.86100        1.19500        0.85500
N          3.25500       -0.95900        0.04100
C          4.65800       -1.05900        0.15600
C          5.43900       -0.15300        0.87900
C          6.83100       -0.28300        0.91900
C          7.44200       -1.32600        0.23400
O          8.79600       -1.47000        0.22200
C          6.68100       -2.25400       -0.46500
C          5.28900       -2.12700       -0.49500
H          0.47200        0.83400        0.17000
H          0.61400       -0.75900        0.95700
H          0.84300       -0.59400       -0.81100
H          2.79200       -1.72400       -0.43300
H          4.99200        0.66600        1.43400
H          7.41100        0.44000        1.48500
H          9.18900       -0.72000        0.70000
H          7.17000       -3.06700       -0.99400
H          4.71500       -2.85800       -1.05800
