18
103-82-2.pdb
O          3.72300       -0.60500       -3.60100
C          2.83300       -0.05800       -2.74400
O          1.76000        0.38200       -3.13700
C          3.20100       -0.11600       -1.27700
C          4.67800       -0.06500       -0.96500
C          5.34300        1.16700       -0.88600
C          6.70900        1.21500       -0.60500
C          7.42500        0.03500       -0.41500
C          6.77700       -1.19500       -0.49900
C          5.40800       -1.24700       -0.76900
H          4.55100       -0.91100       -3.18400
H          2.76100       -1.02700       -0.85600
H          2.71400        0.73100       -0.77700
H          4.80100        2.10000       -1.03200
H          7.21500        2.17500       -0.52800
H          8.48900        0.07500       -0.19100
H          7.33700       -2.11500       -0.34800
H          4.91800       -2.21800       -0.81900
