28
103-29-7.pdb
C          1.01100        0.05100       -0.12600
C          0.40700        1.45800       -0.08600
C         -1.10000        1.44300       -0.19400
C         -1.90100        1.36300        0.95300
C         -3.29400        1.37700        0.84900
C         -3.90100        1.46500       -0.40100
C         -3.11500        1.52600       -1.55200
C         -1.72300        1.51200       -1.44900
C          2.52200        0.06900       -0.10900
C          3.22600        0.03900        1.10200
C          4.62400        0.02700        1.11100
C          5.33100        0.05300       -0.09000
C          4.64200        0.10200       -1.30000
C          3.24500        0.11300       -1.31000
H          0.67100       -0.48400       -1.02300
H          0.64700       -0.54200        0.72300
H          0.81600        2.07200       -0.89900
H          0.69800        1.96900        0.84100
H         -1.44500        1.29800        1.93900
H         -3.90700        1.32700        1.74500
H         -4.98500        1.48600       -0.48200
H         -3.58800        1.59400       -2.52800
H         -1.12500        1.56700       -2.35600
H          2.69100        0.01300        2.04800
H          5.16100       -0.01100        2.05500
H          6.41800        0.03300       -0.08200
H          5.19300        0.12800       -2.23600
H          2.72400        0.14800       -2.26300
