29
103-50-4.pdb
C          1.05200        0.01600        0.01100
O          0.53200        1.34500        0.00200
C         -0.89100        1.36500        0.03600
C         -1.35400        2.80000        0.02500
C         -1.02100        3.63900       -1.04800
C         -1.45800        4.96500       -1.07700
C         -2.23300        5.46700       -0.03500
C         -2.56600        4.64600        1.04100
C         -2.12900        3.31900        1.07300
C          2.56100        0.04800       -0.02300
C          3.28600        1.09100        0.57400
C          4.68200        1.08400        0.57000
C          5.37300        0.02800       -0.01900
C          4.66800       -1.01900       -0.60900
C          3.27100       -1.01100       -0.60900
H          0.67400       -0.51900       -0.86800
H          0.72800       -0.50700        0.91800
H         -1.24600        0.85200        0.93700
H         -1.29800        0.84800       -0.84200
H         -0.40600        3.25900       -1.86200
H         -1.18600        5.60700       -1.91100
H         -2.57300        6.49800       -0.05800
H         -3.16400        5.04000        1.85800
H         -2.39400        2.69700        1.92500
H          2.76100        1.92400        1.03900
H          5.22800        1.90500        1.02800
H          6.46000        0.02100       -0.01700
H          5.20600       -1.84200       -1.07100
H          2.73900       -1.83900       -1.07300
