18
10312-55-7.pdb
N          2.35200        0.06100       -0.26100
C          0.95000       -0.00600       -0.06500
C          0.22400        1.20200       -0.06300
C         -1.17900        1.22800        0.00500
C         -1.84900       -0.00000        0.03800
C         -1.14000       -1.21100        0.01200
C          0.26800       -1.24000       -0.04200
C          0.98700       -2.58300       -0.01000
O          2.26400       -2.57200        0.08400
O          0.27800       -3.64200       -0.04600
C         -1.94000        2.54000        0.03100
O         -1.26300        3.62000        0.01400
O         -3.21400        2.48300        0.07700
H          2.76900        0.77000        0.32500
H          2.73300       -0.88700       -0.07000
H          0.75700        2.14900       -0.12300
H         -2.93600       -0.01600        0.07800
H         -1.69000       -2.14900        0.04000
