20
10328-92-4.pdb
C          1.06200       -0.02000       -0.03800
N          2.51700       -0.00900        0.00000
C          3.19100       -1.22500       -0.04500
O          2.60000       -2.30000       -0.11000
O          4.54900       -1.22600       -0.01200
C          5.28400       -0.10200        0.01100
O          6.50900       -0.13800        0.06000
C          4.59500        1.19000       -0.03400
C          5.33800        2.37700       -0.11600
C          4.68500        3.60600       -0.16700
C          3.29600        3.64700       -0.10100
C          2.56200        2.46000       -0.00800
C          3.21000        1.21600       -0.00200
H          0.65700       -1.03500       -0.09300
H          0.71700        0.52200       -0.92300
H          0.67200        0.44900        0.87100
H          6.42600        2.34400       -0.15200
H          5.25800        4.52600       -0.25600
H          2.78000        4.60400       -0.13100
H          1.48000        2.54200        0.04400
