20
10323-20-3.pdb
O          0.91000       -0.07300        0.01500
C          2.34800       -0.05100        0.00100
C          2.86300        0.95300       -1.03500
O          2.52200        0.58000       -2.37100
C          2.95200       -0.72400       -2.74400
O          4.36900       -0.76100       -2.91100
C          2.44900       -1.82100       -1.78300
O          2.96500       -3.10800       -2.14800
C          2.83700       -1.46300       -0.33900
O          2.27900       -2.39600        0.59400
H          0.60000        0.84000        0.14600
H          2.66900        0.23000        1.01000
H          3.94900        1.07300       -0.96000
H          2.40700        1.93300       -0.86000
H          2.54100       -0.92500       -3.73900
H          4.79200       -0.74100       -2.04200
H          1.35700       -1.89200       -1.84900
H          3.90700       -2.99700       -2.37100
H          3.92400       -1.52900       -0.21800
H          1.31000       -2.27700        0.53800
