20
10349-57-2.pdb
O          1.19300        0.07900        0.22500
C          2.51100        0.02800       -0.05500
O          3.08500       -0.99500       -0.38800
C          3.19700        1.34100        0.03100
C          2.80900        2.32400        0.94400
C          3.49900        3.54000        0.99000
C          4.58100        3.80000        0.16200
N          5.21000        4.98200        0.25300
C          6.27000        5.20000       -0.55500
C          6.74300        4.28100       -1.47300
C          6.08800        3.06000       -1.56800
C          4.98600        2.79500       -0.74600
C          4.29400        1.57200       -0.80500
H          0.81500        0.97400        0.29900
H          1.99800        2.15900        1.64900
H          3.19500        4.30400        1.70400
H          6.74700        6.17000       -0.43800
H          7.60100        4.50800       -2.09600
H          6.44200        2.31800       -2.28000
H          4.61400        0.79500       -1.49800
