28
10340-23-5.pdb
C          4.97000        1.03500        2.79800
C          4.47000        0.55300        1.44600
C          4.98500        1.45800        0.33000
C          4.51500        0.99200       -1.05000
C          4.98200        1.92200       -2.17500
C          6.47800        1.94000       -2.33400
C          7.18000        1.55900       -3.41200
C          6.62200        1.02300       -4.70200
C          6.28600        2.14700       -5.68100
O          7.45900        2.84800       -6.08300
H          4.60200        0.38300        3.59600
H          4.62400        2.05300        3.00200
H          6.06500        1.03200        2.83400
H          3.37400        0.54000        1.44500
H          4.81000       -0.47600        1.28000
H          6.07900        1.47000        0.37100
H          4.64200        2.48500        0.50300
H          3.41800        0.95600       -1.06300
H          4.86800       -0.03000       -1.24100
H          4.64300        2.94500       -1.97200
H          4.48700        1.61800       -3.10400
H          7.04200        2.32900       -1.48700
H          8.26600        1.64100       -3.37200
H          5.73200        0.41200       -4.51500
H          7.37200        0.35800       -5.14400
H          5.58100        2.86600       -5.24900
H          5.82600        1.72800       -6.58200
H          7.80600        3.29200       -5.28900
