42
1034-01-1.pdb
C          0.94900        0.08200        0.11100
C          2.46800        0.07200        0.09800
C          3.00000       -1.34000       -0.12500
C          4.52600       -1.35700       -0.14000
C          5.05100       -2.77400       -0.36300
C          6.57800       -2.79800       -0.37900
C          7.10100       -4.21400       -0.59800
C          8.62500       -4.26000       -0.59300
O          9.07600       -5.61200       -0.78200
C          9.06300       -6.40900        0.32400
O          8.74100       -6.06700        1.44500
C          9.46600       -7.79900       -0.01900
C          9.46400       -8.79800        0.97900
C          9.80100      -10.11100        0.63600
O          9.80300      -11.13500        1.54400
C         10.14200      -10.42300       -0.67600
O         10.46400      -11.70300       -1.04200
C         10.15400       -9.43400       -1.64900
O         10.47900       -9.73400       -2.93900
C          9.82200       -8.12900       -1.33200
H          0.57700        1.09800        0.27200
H          0.56300       -0.55600        0.91200
H          0.55000       -0.28300       -0.84100
H          2.84300        0.46700        1.05000
H          2.83000        0.73800       -0.69400
H          2.61800       -1.73200       -1.07700
H          2.63100       -2.00300        0.66700
H          4.90800       -0.96600        0.81100
H          4.89500       -0.69700       -0.93400
H          4.66500       -3.16400       -1.31200
H          4.67800       -3.43200        0.43200
H          6.96000       -2.40700        0.57200
H          6.94800       -2.13800       -1.17300
H          6.72500       -4.61800       -1.54800
H          6.71100       -4.87800        0.18200
H          9.04300       -3.84800        0.33100
H          9.02100       -3.66100       -1.42200
H          9.18600       -8.54500        2.00000
H          9.55000      -10.78500        2.41700
H         10.38200      -12.22600       -0.21900
H         10.66000      -10.69600       -2.93300
H          9.82900       -7.38000       -2.12100
