16
10340-91-7.pdb
C          5.68400       -0.57300       -1.50100
N          4.75300       -0.33400       -0.82300
C          3.61700       -0.05300       -0.00800
C          3.99000        0.85000        1.13600
C          3.94500        2.24300        0.98200
C          4.19900        3.08100        2.06800
C          4.51800        2.53700        3.31000
C          4.60800        1.15500        3.46400
C          4.35600        0.31300        2.38000
H          3.19800       -0.99100        0.37400
H          2.83600        0.41400       -0.62000
H          3.67400        2.68300        0.02500
H          4.12800        4.15900        1.94900
H          4.69000        3.19100        4.16200
H          4.85400        0.73200        4.43400
H          4.41200       -0.76400        2.52400
