23
103548-16-9.pdb
O          1.01000        0.22900       -0.16800
C          2.43200        0.19200       -0.12100
C          2.91900       -0.93400       -1.02300
C          4.44700       -1.02500       -1.04300
O          4.91600       -1.26800        0.28300
C          4.94900       -2.09700       -1.99400
C          5.79200       -1.74500       -3.05800
C          6.25400       -2.71400       -3.95200
C          5.88500       -4.05000       -3.78600
C          5.05400       -4.41500       -2.73100
C          4.58700       -3.44600       -1.84100
H          0.72500        0.91200        0.46500
H          2.73700        0.03000        0.91700
H          2.81500        1.16000       -0.46000
H          2.52900       -0.78700       -2.03800
H          2.47700       -1.87100       -0.66200
H          4.85400       -0.05100       -1.34200
H          5.15000       -2.20900        0.35400
H          6.09300       -0.70900       -3.20500
H          6.90100       -2.43200       -4.77800
H          6.24400       -4.80300       -4.48200
H          4.76400       -5.45500       -2.60200
H          3.93100       -3.75400       -1.02900
