36
10357-27-4.pdb
O          3.75200        0.49600        2.38500
C          3.06900       -0.75500        2.31300
C          2.92600       -1.20400        0.85200
O          4.23500       -1.39800        0.27800
C          4.18200       -1.74500       -1.11800
O          3.51000       -0.77100       -1.92500
C          4.09400        0.46600       -2.00600
C          5.45500        0.72000       -1.82100
C          5.95500        2.02100       -1.92600
C          5.08700        3.07600       -2.22300
C          3.72300        2.83400       -2.42600
C          3.23600        1.52600       -2.32400
N          5.62200        4.43900       -2.32800
O          6.83600        4.59700       -2.15600
O          4.82300        5.35000       -2.59300
C          3.49600       -3.11900       -1.22900
O          4.23000       -4.11400       -0.47900
C          2.07500       -3.03500       -0.66300
O          1.46100       -4.32900       -0.69500
C          2.10100       -2.50000        0.78000
O          0.78100       -2.27700        1.28400
H          3.85400        0.70400        3.33000
H          2.08700       -0.62100        2.77800
H          3.64500       -1.48700        2.88900
H          2.41800       -0.39600        0.31200
H          5.21100       -1.89100       -1.46400
H          6.16500       -0.06800       -1.59100
H          7.02000        2.18800       -1.77200
H          3.03500        3.64400       -2.65900
H          2.17400        1.34000       -2.47600
H          3.46000       -3.46400       -2.26800
H          4.70400       -3.64600        0.24000
H          1.45400       -2.38500       -1.28900
H          2.13300       -4.95900       -0.36400
H          2.55200       -3.26200        1.42900
H          0.21900       -1.96900        0.55200
