28
10354-00-4.pdb
O          1.01600        0.08200       -0.41500
C          2.42600        0.06400       -0.19300
C          2.88600       -1.19400        0.52000
C          3.77800       -2.06200       -0.13300
C          4.26000       -3.20300        0.50300
C          3.84200       -3.50200        1.79600
C          2.95500       -2.65200        2.45800
C          2.48500       -1.48200        1.84100
C          1.58000       -0.61400        2.61000
C          1.58200        0.73100        2.61200
C          2.48800        1.60100        1.84400
C          2.96600        2.76500        2.46700
C          3.85300        3.61700        1.80600
C          4.26000        3.32700        0.50900
C          3.77500        2.18900       -0.13200
C          2.88200        1.31700        0.52100
H          0.69700       -0.82400       -0.26900
H          2.85700        0.06200       -1.20400
H          4.12400       -1.83900       -1.14200
H          4.96700       -3.85300       -0.00600
H          4.22000       -4.38900        2.29800
H          2.65600       -2.89500        3.47500
H          0.87000       -1.12900        3.25400
H          0.87300        1.24900        3.25200
H          2.66900        3.00500        3.48500
H          4.23000        4.50400        2.31000
H          4.96100        3.98100       -0.00200
H          4.10700        1.97500       -1.14500
