22
10397-58-7.pdb
C          0.97200       -0.13400       -0.31800
O          2.31600        0.07700        0.10100
C          3.02200       -1.02200        0.49900
C          2.72000       -2.33100        0.12100
C          3.54400       -3.39400        0.52100
C          4.69300       -3.17600        1.29900
C          5.00600       -1.87200        1.68700
C          4.16200       -0.82200        1.28700
N          4.49400        0.51200        1.74800
O          3.69100        1.06800        2.50900
O          5.60100        0.95800        1.41500
C          5.51200       -4.36400        1.67000
N          6.64900       -4.17900        2.40500
O          5.18300       -5.49300        1.32600
H          0.52800        0.84600       -0.52000
H          0.38700       -0.61300        0.47400
H          0.92800       -0.71000       -1.24800
H          1.86300       -2.56600       -0.50300
H          3.28500       -4.40600        0.20900
H          5.87300       -1.64900        2.29700
H          7.02700       -3.29500        2.70500
H          7.18400       -5.01100        2.62200
