26
10396-10-8.pdb
C          2.44600       -0.00600       -0.00700
C          0.94500        0.02400        0.00300
C          0.24600        1.23900        0.02100
C         -1.15300        1.26200        0.01500
C         -1.85700        0.05900       -0.02000
C         -1.16900       -1.16200       -0.02200
C          0.22600       -1.17700       -0.00800
S         -3.62400       -0.01200       -0.10200
O         -3.96900       -0.59000       -1.38100
O         -4.10000       -0.61100        1.13700
N         -4.19200        1.59300       -0.13700
N         -5.65300        1.73700       -0.15500
C         -6.25400        2.78000       -0.78200
N         -7.61300        2.72000       -0.77500
O         -5.67300        3.72400       -1.30700
H          2.86800        1.00400        0.00600
H          2.80600       -0.50800       -0.91100
H          2.82000       -0.53800        0.87300
H          0.79200        2.18100        0.03600
H         -1.65600        2.22300        0.04000
H         -1.71600       -2.10400       -0.04000
H          0.75000       -2.13100       -0.01400
H         -3.68600        2.23700       -0.75500
H         -6.20600        0.97400        0.22000
H         -8.01700        1.80100       -0.86900
H         -8.04500        3.41900       -1.37000
