20
104-54-1.pdb
O          1.47800        0.62600       -1.12600
C          2.72400        0.32000       -1.73400
C          3.12000       -1.04700       -1.28700
C          4.24700       -1.40100       -0.64800
C          5.30200       -0.46400       -0.26500
C          5.25100        0.18700        0.97200
C          6.24300        1.10500        1.32400
C          7.28700        1.37500        0.44100
C          7.34600        0.72400       -0.79100
C          6.35500       -0.19400       -1.14400
H          1.29700        1.55900       -1.32600
H          3.44700        1.09300       -1.46100
H          2.59100        0.33200       -2.82100
H          2.39800       -1.83000       -1.51300
H          4.41700       -2.43800       -0.37200
H          4.43600       -0.01400        1.66400
H          6.19700        1.61100        2.28500
H          8.05600        2.09300        0.71300
H          8.16200        0.93300       -1.47900
H          6.40700       -0.69300       -2.10900
