21
104-10-9.pdb
N          2.38100       -0.04100       -0.19300
C          0.99100       -0.01200       -0.02500
C          0.29900        1.20000       -0.06800
C         -1.09900        1.23000       -0.02500
C         -1.83100        0.03900        0.02600
C         -3.34100        0.05300        0.05700
C         -3.97000        0.07600       -1.33600
O         -3.67700       -1.11200       -2.06400
C         -1.13900       -1.17800        0.00600
C          0.25700       -1.20000       -0.04300
H          2.84800        0.79300        0.14800
H          2.81400       -0.89100        0.15700
H          0.84600        2.13700       -0.13400
H         -1.60700        2.19200       -0.04000
H         -3.68000        0.92900        0.62500
H         -3.69100       -0.82900        0.60800
H         -3.63500        0.93800       -1.92300
H         -5.05900        0.13500       -1.24100
H         -2.72200       -1.09000       -2.26100
H         -1.68500       -2.11900        0.01100
H          0.76700       -2.15900       -0.09200
