28
104-38-1.pdb
O          1.46000       -1.26100       -0.10300
C          2.63300       -0.45600       -0.08400
C          3.19400       -0.38900        1.33100
O          4.37000        0.42000        1.33200
C          5.01800        0.54900        2.53300
C          4.60600       -0.00500        3.74600
C          5.36200        0.19100        4.90900
C          6.53700        0.94200        4.87100
O          7.33600        1.20900        5.95000
C          7.32000        0.22100        6.99000
C          8.29600        0.65300        8.08100
O          7.87700        1.88400        8.66900
C          6.93500        1.51800        3.66500
C          6.18500        1.31500        2.50200
H          1.14100       -1.27500       -1.02400
H          2.38500        0.54700       -0.44700
H          3.37200       -0.88500       -0.77000
H          3.42400       -1.40700        1.66800
H          2.43200        0.03900        1.99400
H          3.69600       -0.59100        3.82800
H          4.98600       -0.24000        5.83000
H          7.63100       -0.74700        6.58400
H          6.32000        0.15100        7.43300
H          9.30300        0.80400        7.67800
H          8.33900       -0.10100        8.87200
H          7.81400        2.52500        7.93600
H          7.83800        2.12100        3.62500
H          6.51500        1.76000        1.56600
