19
104-93-8.pdb
C          1.32700       -0.52700       -0.70400
O          2.45800        0.07200       -0.08200
C          3.13700       -0.70500        0.81700
C          2.77600       -1.99600        1.20800
C          3.55900       -2.70000        2.12700
C          4.71200       -2.12200        2.66700
C          5.56600       -2.88000        3.63900
C          5.06500       -0.82400        2.28300
C          4.28000       -0.12200        1.36300
H          0.90500        0.19700       -1.40800
H          0.55200       -0.76300        0.03300
H          1.61500       -1.41700       -1.27500
H          1.89200       -2.48900        0.81700
H          3.25900       -3.70500        2.41400
H          5.17600       -3.88700        3.81500
H          5.60000       -2.35800        4.60000
H          6.58300       -2.98000        3.24500
H          5.95500       -0.35200        2.69300
H          4.56500        0.88500        1.06900
