21
104-04-1.pdb
C          0.99100       -0.18400        0.08300
C          2.46200        0.09500        0.22300
O          2.88800        1.24100        0.11800
N          3.21400       -1.04800        0.44900
C          4.61000       -1.07900        0.63300
C          5.35300        0.05900        0.96700
C          6.74400        0.00200        1.08500
C          7.40100       -1.21000        0.87100
C          6.67300       -2.36800        0.57000
C          5.27700       -2.30200        0.46800
N          8.86600       -1.26000        0.95500
O          9.46500       -0.21100        1.21900
O          9.41400       -2.35400        0.75500
H          0.49400        0.71700       -0.29400
H          0.57200       -0.44000        1.05800
H          0.82000       -0.99500       -0.63000
H          2.74500       -1.93800        0.33400
H          4.87200        1.01500        1.15200
H          7.28400        0.91200        1.33600
H          7.17400       -3.32000        0.39800
H          4.72700       -3.20600        0.21900
