33
104-67-6.pdb
C          7.52800       -6.06200       -4.86800
C          7.12700       -5.96900       -3.40500
C          8.02900       -4.99900       -2.64300
C          7.62300       -4.90500       -1.17400
C          8.52300       -3.93300       -0.40900
C          8.10100       -3.84100        1.05600
C          8.98700       -2.86700        1.83900
C          8.57500       -2.80700        3.31400
C          9.41700       -1.85300        4.13400
C          8.66600       -0.54700        4.04200
C          7.25800       -0.99700        3.80300
O          6.26800       -0.29100        3.88900
O          7.23700       -2.31000        3.43200
H          6.87300       -6.76000       -5.39900
H          8.55800       -6.41900       -4.96800
H          7.45400       -5.08500       -5.35700
H          7.18100       -6.96500       -2.95100
H          6.08400       -5.63800       -3.33800
H          7.97300       -4.00500       -3.10400
H          9.07200       -5.33100       -2.71600
H          7.67900       -5.89800       -0.71200
H          6.58000       -4.57300       -1.10200
H          8.47000       -2.94000       -0.87200
H          9.56500       -4.26700       -0.47400
H          8.15600       -4.83600        1.51600
H          7.05400       -3.51800        1.11200
H          8.90800       -1.87400        1.38100
H         10.03400       -3.18300        1.76500
H          8.61200       -3.81200        3.75000
H         10.45700       -1.77800        3.80200
H          9.42800       -2.18600        5.17900
H          9.00100        0.05700        3.19400
H          8.73900        0.02000        4.97300
