17
104-87-0.pdb
C          2.47700       -0.01300       -0.01000
C          0.97700        0.00900       -0.00200
C          0.27900        1.22300       -0.00200
C         -1.11700        1.23600       -0.00700
C         -1.82200        0.03100       -0.01300
C         -3.29900        0.03700       -0.02800
O         -3.94900        1.07500       -0.03300
C         -1.13900       -1.18700       -0.00800
C          0.25800       -1.19500       -0.00300
H          2.89300        1.00000        0.00600
H          2.84200       -0.51100       -0.91400
H          2.85300       -0.54400        0.87100
H          0.81600        2.16900       -0.00100
H         -1.65000        2.18500       -0.00900
H         -3.79500       -0.94800       -0.03600
H         -1.67700       -2.13200       -0.01000
H          0.78700       -2.14600       -0.00100
