24
104-50-7.pdb
C          0.90300        0.10600       -0.07300
C          2.42300        0.11500       -0.02600
C          2.94800       -0.79200        1.08800
C          4.47900       -0.78100        1.14600
C          5.01900       -1.71400        2.23200
C          6.53300       -1.71800        2.28900
C          6.87200       -3.13700        2.67600
C          5.68200       -3.90600        2.19400
O          5.62400       -5.11800        2.08000
O          4.64400       -3.06300        1.93600
H          0.54300        0.76000       -0.87300
H          0.48000        0.46000        0.87200
H          0.52300       -0.90300       -0.26300
H          2.77300        1.14100        0.13000
H          2.81400       -0.21900       -0.99400
H          2.58700       -1.81400        0.91900
H          2.54500       -0.46200        2.05300
H          4.83700        0.24000        1.32200
H          4.86200       -1.10200        0.16800
H          4.59300       -1.45000        3.20800
H          6.92800       -0.98300        2.99700
H          6.96800       -1.49300        1.30800
H          6.96100       -3.25500        3.75900
H          7.78000       -3.47800        2.17400
