26
104-13-2.pdb
C          1.03600       -0.16200        0.03300
C          2.55600       -0.12500        0.03400
C          3.06300        0.97000        0.97100
C          4.59100        1.03400        1.01300
C          5.08500        2.09900        1.96300
C          4.75300        2.04800        3.32300
C          5.21700        3.02400        4.20700
C          6.06900        4.03600        3.76600
N          6.44900        5.06300        4.63900
C          6.34500        4.12700        2.40100
C          5.87900        3.15700        1.50800
H          0.67400       -0.94800       -0.64000
H          0.62300        0.79300       -0.30500
H          0.65000       -0.36700        1.03500
H          2.92100        0.05400       -0.98400
H          2.94200       -1.10000        0.35300
H          2.66200        0.78000        1.97300
H          2.66500        1.94200        0.65200
H          4.97700        1.22200        0.00300
H          5.00800        0.06900        1.32900
H          4.11500        1.25500        3.70600
H          4.91100        2.97800        5.24900
H          6.49300        4.76700        5.60900
H          7.29500        5.54500        4.34800
H          6.93500        4.95700        2.01800
H          6.13100        3.24500        0.45400
