20
104-53-0.pdb
O          2.96300        1.23800        0.68200
C          2.97300        1.36400       -0.53800
C          3.71600        0.45700       -1.48600
C          4.46600       -0.64400       -0.74000
C          5.22500       -1.56900       -1.66100
C          6.23900       -1.08000       -2.49500
C          6.94500       -1.94000       -3.33600
C          6.65400       -3.30300       -3.34600
C          5.65900       -3.80500       -2.50800
C          4.95100       -2.94400       -1.66900
H          2.41800        2.18700       -1.01800
H          4.40200        1.08700       -2.06300
H          2.98700        0.03000       -2.18300
H          3.75100       -1.22200       -0.14000
H          5.17400       -0.20700       -0.02600
H          6.49400       -0.02200       -2.49300
H          7.72800       -1.54800       -3.98100
H          7.20700       -3.97300       -3.99800
H          5.43900       -4.86900       -2.50700
H          4.18700       -3.35800       -1.01500
