33
10414-81-0.pdb
N          0.98400       -0.11100       -0.20300
C          2.44500       -0.09200       -0.04700
C          3.05600       -1.42300        0.41400
O          3.25900       -2.30800       -0.68600
C          4.31700       -1.01100        1.20800
C          5.64400       -1.59400        0.73100
O          6.72500       -1.11700        1.53200
O          4.36700        0.44100        1.23400
C          3.03500        0.92700        0.94000
N          2.28400        1.17900        2.16400
C          1.78800        2.40900        2.52000
N          1.08700        2.36600        3.63600
C          1.12200        1.04300        4.02000
C          0.57000        0.35000        5.11600
N         -0.16100        0.96100        6.12400
N          0.73600       -0.99000        5.18600
C          1.46100       -1.59800        4.23400
N          2.05200       -1.03400        3.16900
C          1.84700        0.28900        3.11200
H          0.71600       -0.91300       -0.77100
H          0.65000        0.72400       -0.68600
H          2.85800        0.12700       -1.04100
H          2.36900       -1.96200        1.06900
H          4.03000       -2.02900       -1.20600
H          4.21800       -1.30300        2.25700
H          5.86800       -1.31500       -0.30200
H          5.62800       -2.68500        0.81200
H          6.65600       -0.14400        1.54100
H          3.15200        1.88900        0.43900
H          1.95400        3.30300        1.93000
H         -0.56700        1.84600        5.84500
H         -0.75300        0.29700        6.60400
H          1.56800       -2.67500        4.32400
