27
10420-89-0.pdb
C          1.30300       -0.27100       -0.66600
C          2.56400        0.12700        0.10900
N          3.67900        0.23900       -0.87200
C          2.94900       -0.81000        1.24000
C          2.74100       -2.19600        1.07900
C          3.03500       -3.09200        2.10000
C          3.55000       -2.62700        3.30000
C          3.81000       -1.26600        3.49100
C          4.34400       -0.84600        4.72000
C          4.64700        0.49100        4.95200
C          4.41900        1.42500        3.95300
C          3.87200        1.02600        2.72800
C          3.53700       -0.32900        2.45800
H          0.46000       -0.43300        0.01600
H          1.44300       -1.18300       -1.25600
H          1.01500        0.52100       -1.36700
H          2.39000        1.13900        0.48400
H          3.95000       -0.68800       -1.22100
H          4.51000        0.64300       -0.42400
H          3.42900        0.82600       -1.67600
H          2.32600       -2.61600        0.16600
H          2.84900       -4.15700        1.96900
H          3.75300       -3.34500        4.09400
H          4.52800       -1.56500        5.51800
H          5.05800        0.79700        5.91100
H          4.66800        2.47100        4.13100
H          3.71900        1.81400        1.99700
