37
104594-70-9.pdb
O          1.67200       -1.35300        0.07000
C          0.47400       -0.69500        0.06400
C         -0.63600       -1.26000       -0.55700
C         -1.85400       -0.57300       -0.55000
C         -1.97000        0.67300        0.08600
C         -3.21900        1.44500        0.07500
C         -4.43400        0.89300        0.15500
C         -5.63100        1.73800       -0.03400
O         -5.62700        2.93300       -0.25700
O         -6.68300        0.89300       -0.13100
C         -7.60200        1.21000       -1.18600
C         -7.11500        0.52500       -2.47200
C         -7.05300       -0.98700       -2.36200
C         -8.21500       -1.73100       -2.12300
C         -8.16100       -3.12300       -2.02800
C         -6.94600       -3.78800       -2.17600
C         -5.78300       -3.06000       -2.41800
C         -5.83500       -1.66600       -2.51200
C         -0.83900        1.23900        0.68700
C          0.37400        0.55100        0.68000
O          1.47700        1.09700        1.27500
H          1.57000       -2.20400       -0.38200
H         -0.57300       -2.22200       -1.05500
H         -2.70300       -1.01900       -1.06100
H         -3.11300        2.52500       -0.02300
H         -4.59600       -0.17600        0.25000
H         -7.68500        2.29200       -1.33900
H         -8.59200        0.85100       -0.88500
H         -6.11500        0.90400       -2.72000
H         -7.77000        0.78900       -3.30900
H         -9.17500       -1.23400       -2.00700
H         -9.07100       -3.68900       -1.83900
H         -6.90800       -4.87100       -2.10800
H         -4.83600       -3.58000       -2.53800
H         -4.91600       -1.11800       -2.70400
H         -0.91300        2.21400        1.16100
H          1.24000        1.95600        1.65700
