29
10458-14-7.pdb
C          2.66800       -1.34500        0.69400
C          2.40300       -0.08600       -0.14900
C          0.88800        0.05700       -0.32700
C          3.06900        1.16000        0.49300
C          2.90800        2.48500       -0.26500
C          3.61400        2.49700       -1.62400
C          5.10000        2.09200       -1.56600
C          5.99500        3.26900       -1.16500
C          5.36400        0.88400       -0.66200
C          4.57200        0.94800        0.62400
O          5.10500        0.77500        1.71600
H          2.19100       -2.22200        0.24400
H          2.27300       -1.22900        1.71000
H          3.73700       -1.56200        0.77000
H          2.82900       -0.26000       -1.14300
H          0.36800        0.04900        0.63800
H          0.50100       -0.78500       -0.91500
H          0.61400        0.97000       -0.86000
H          2.65900        1.29900        1.50300
H          3.32800        3.29400        0.34900
H          1.85100        2.73300       -0.39900
H          3.52100        3.49900       -2.06400
H          3.08700        1.81800       -2.30300
H          5.40400        1.81600       -2.58500
H          5.78700        3.61300       -0.15000
H          5.85800        4.11200       -1.85100
H          7.05200        2.97800       -1.21600
H          6.42800        0.80600       -0.41500
H          5.09300       -0.04300       -1.17800
