35
104504-45-2.pdb
N          1.19100        0.38400       -0.35700
C          1.83200       -0.76800        0.35600
C          3.02000       -0.36300        1.24700
C          2.68300        0.59100        2.37500
C          2.25600        0.09300        3.61500
C          1.94300        0.96200        4.66300
C          2.02900        2.34400        4.47600
C          2.47000        2.84700        3.24600
C          2.79600        1.97700        2.20300
C          1.72300        3.31100        5.56200
O          2.35000        4.36800        5.60600
C          0.68400        3.04400        6.59100
C         -0.46200        2.28900        6.31300
C         -1.41500        2.07300        7.31000
C         -1.24000        2.62800        8.57700
C         -0.11500        3.40500        8.85200
C          0.84500        3.61600        7.86000
C          0.75900       -1.52200        1.16000
O         -0.47500       -0.98800        0.96000
O          0.96500       -2.48400        1.88300
H          1.83000        0.67800       -1.10200
H          1.17200        1.18800        0.28400
H          2.17700       -1.46800       -0.41600
H          3.80300        0.09000        0.62400
H          3.47900       -1.26200        1.68000
H          2.17200       -0.98100        3.78100
H          1.64900        0.53800        5.62000
H          2.56900        3.92200        3.10300
H          3.14700        2.39500        1.26200
H         -0.63700        1.87100        5.32500
H         -2.30000        1.47900        7.09600
H         -1.98800        2.46500        9.35200
H          0.01400        3.85100        9.83400
H          1.71700        4.22900        8.07700
H         -0.34700       -0.26600        0.29500
