19
10463-20-4.pdb
O          1.83700        0.49000        0.66500
C          2.28300       -0.68500        0.82700
O          2.02300       -1.50600        1.75700
C          3.13700       -1.22800       -0.31600
C          4.62300       -0.99600       -0.19900
C          5.50900       -2.07400       -0.17600
C          6.90400       -1.87700       -0.20600
C          7.51900       -0.61000       -0.25900
O          8.79100       -0.49400       -0.34100
C          6.58000        0.45700       -0.22900
C          5.17300        0.28600       -0.21100
N          7.04500        1.84300       -0.26300
O          7.52700        2.33200        0.77600
O          6.80700        2.49800       -1.29700
H          2.79300       -0.79100       -1.26200
H          2.93400       -2.30400       -0.40400
H          5.12900       -3.09100       -0.15400
H          7.54400       -2.75900       -0.20400
H          4.51500        1.15300       -0.22300
