14
10477-47-1.pdb
C          1.21400        0.04200        0.01900
C          2.55200        0.02200       -0.07200
C          3.20400       -0.26500       -1.36800
O          2.60300       -0.46600       -2.41200
O          4.55100       -0.25200       -1.20500
C          5.29400       -0.54800       -2.40000
C          5.33400       -2.05100       -2.61900
C          5.36900       -3.34100       -2.80700
H          0.71500        0.25800        0.95800
H          0.58400       -0.15800       -0.84500
H          3.18200        0.21600        0.78600
H          6.31200       -0.17100       -2.25900
H          4.86700       -0.03600       -3.27000
H          5.38900       -4.39500       -2.96100
