20
10472-24-9.pdb
C          1.10300       -1.56500        1.16400
O          2.52700       -1.43700        1.13200
C          3.04800       -1.26500       -0.11800
O          2.40300       -1.26400       -1.15500
C          4.54300       -1.15500       -0.03000
C          5.22400       -2.51400       -0.18200
C          5.68000       -2.61300       -1.63400
C          5.95300       -1.19400       -2.10200
C          5.13800       -0.35300       -1.14900
O          5.01300        0.85800       -1.26800
H          0.79500       -1.63800        2.21000
H          0.79300       -2.47700        0.64600
H          0.62500       -0.68400        0.72400
H          4.83000       -0.68300        0.91700
H          4.56800       -3.35300        0.07700
H          6.09700       -2.56600        0.48000
H          4.89400       -3.06700       -2.24900
H          6.57100       -3.24200       -1.73200
H          5.62400       -1.04100       -3.13100
H          7.01000       -0.93000       -1.99200
