40
10496-15-8.pdb
C          1.03600        0.04100       -0.06100
C          2.55800        0.05600       -0.06500
C          3.09800        1.28700       -0.79300
C          4.62700        1.31200       -0.80700
C          5.15200        2.55700       -1.52900
C          6.67500        2.59800       -1.54400
S          7.25700        4.05900       -2.46500
S          9.29900        3.87800       -2.29400
C          9.61300        2.32900       -3.20300
C         11.10400        2.01700       -3.20800
C         11.40100        0.69700       -3.92500
C         12.90000        0.39800       -3.93600
C         13.21700       -0.91400       -4.65000
C         14.70800       -1.20200       -4.65300
H          0.66600       -0.84700        0.46300
H          0.64100        0.02300       -1.08000
H          0.63700        0.92400        0.44700
H          2.92400       -0.85600       -0.55200
H          2.92100        0.04200        0.96800
H          2.72100        2.19400       -0.30400
H          2.72300        1.29700       -1.82300
H          5.00700        0.40900       -1.29900
H          5.00600        1.30200        0.22400
H          4.76300        3.45300       -1.03600
H          4.76600        2.55700       -2.56300
H          7.04700        1.70200       -2.05600
H          7.07100        2.60900       -0.52500
H          9.22400        2.40000       -4.21800
H          9.08800        1.51700       -2.68000
H         11.48300        1.96100       -2.18200
H         11.64900        2.82600       -3.71200
H         11.02600        0.74200       -4.95500
H         10.86800       -0.12300       -3.42300
H         13.27400        0.35500       -2.90500
H         13.43300        1.22100       -4.43500
H         12.85300       -0.87600       -5.68200
H         12.69300       -1.74400       -4.15200
H         15.25800       -0.40400       -5.17200
H         14.91500       -2.14400       -5.16800
H         15.09800       -1.27700       -3.63400
