19
105-60-2.pdb
O          2.36500        0.08700       -0.28300
C          1.19800       -0.01300        0.08800
C          0.43200        1.15300        0.66900
C         -0.72800        1.57200       -0.22700
C         -1.99000        0.73100       -0.03800
C         -1.84400       -0.74400       -0.41300
C         -0.80400       -1.48500        0.41900
N          0.54400       -1.20500       -0.01600
H          1.13600        1.98800        0.76200
H          0.09900        0.90900        1.68300
H         -0.42500        1.55200       -1.28200
H         -0.98300        2.61300        0.00800
H         -2.78700        1.16400       -0.65400
H         -2.32700        0.81100        1.00300
H         -1.61200       -0.83400       -1.48100
H         -2.81700       -1.22500       -0.25600
H         -0.94700       -2.56500        0.31300
H         -0.89400       -1.23700        1.48100
H          1.10400       -1.94800       -0.41500
