16
105-11-3.pdb
O          1.18900       -0.40400        0.28800
N          2.37900        0.21900       -0.08600
C          3.12900        0.91500        0.88900
C          2.62900        1.17800        2.16700
C          3.38600        1.90600        3.09600
C          4.64700        2.41700        2.75400
C          5.12500        2.18800        1.46000
C          4.37200        1.45100        0.53600
N          5.44300        3.14900        3.61800
O          5.00700        3.24200        4.76800
H          0.58700       -0.19000       -0.45100
H          2.98800       -0.40500       -0.61900
H          1.65300        0.80400        2.45700
H          2.97400        2.07100        4.08900
H          6.09100        2.58600        1.15600
H          4.76500        1.30900       -0.46900
