20
105-54-4.pdb
C          2.96000       -0.39700        1.43700
C          2.56100        0.10200        0.05500
C          3.13600        1.47800       -0.26300
C          4.64200        1.44500       -0.34100
O          5.27200        0.75700       -1.13300
O          5.18600        2.25400        0.61000
C          6.61900        2.26000        0.66900
C          7.11300        1.09100        1.50400
H          2.49900       -1.36900        1.63500
H          2.63300        0.30000        2.21500
H          4.04500       -0.52000        1.52100
H          1.46800        0.15300       -0.00100
H          2.88800       -0.62700       -0.69600
H          2.81200        2.21000        0.48600
H          2.76700        1.83200       -1.23100
H          6.91900        3.20100        1.14200
H          7.05600        2.24900       -0.33600
H          6.70300        1.14600        2.51800
H          8.20400        1.09000        1.56300
H          6.78400        0.13600        1.08100
