26
105-08-8.pdb
O          2.41100        0.42000       -1.42900
C          2.32300        0.04100       -0.06200
C          2.90100       -1.36400        0.13100
C          2.13300       -2.42000       -0.67700
C          2.72100       -3.81800       -0.47300
C          2.77800       -4.20600        1.01400
C          3.45100       -5.56900        1.21000
O          2.74300       -6.59200        0.52100
C          3.50600       -3.13300        1.83400
C          2.91300       -1.74200        1.61600
H          2.08500        1.33400       -1.49400
H          1.27300        0.08500        0.24500
H          2.89000        0.77000        0.52700
H          3.93500       -1.35300       -0.24100
H          2.15900       -2.17800       -1.74700
H          1.07700       -2.42400       -0.37800
H          3.73000       -3.84800       -0.90300
H          2.11600       -4.54200       -1.03000
H          1.74200       -4.28000        1.37300
H          3.48700       -5.83900        2.27100
H          4.47900       -5.55900        0.83200
H          1.82900       -6.59000        0.85300
H          4.56900       -3.11400        1.56200
H          3.45700       -3.38300        2.90100
H          3.49600       -1.01000        2.18700
H          1.89100       -1.71700        2.01800
