28
105-50-0.pdb
C          3.70400        2.78500       -0.55900
C          2.96900        2.59400       -1.87500
O          3.21100        1.25800       -2.34300
C          4.39200        1.14800       -3.02300
O          4.95000        2.08100       -3.58900
C          4.95600       -0.23200       -2.95200
C          6.47500       -0.26100       -2.93700
O          7.09500       -0.17700       -1.88500
C          7.21700       -0.32800       -4.27000
C          6.90800       -1.57400       -5.04000
O          6.15100       -2.45100       -4.64300
O          7.64900       -1.66900       -6.18400
C          7.84200       -3.03100       -6.60600
C          9.03600       -3.59700       -5.85700
H          3.55000        3.79700       -0.18300
H          4.78000        2.61800       -0.68400
H          3.35200        2.06800        0.19000
H          3.31100        3.34200       -2.59800
H          1.89700        2.74800       -1.72400
H          4.58500       -0.81100       -3.79500
H          4.62000       -0.71800       -2.02700
H          8.29400       -0.31600       -4.05300
H          6.96300        0.55000       -4.86400
H          8.03100       -3.06400       -7.68300
H          6.95800       -3.64600       -6.40800
H          9.93700       -3.01300       -6.07000
H          9.20600       -4.63500       -6.14300
H          8.87300       -3.55400       -4.77400
