18
105-58-8.pdb
C          2.55700        1.06000        2.11600
C          2.61400        0.25900        0.83000
O          3.08800       -1.04900        1.16700
C          4.41900       -1.25500        1.01900
O          5.21200       -0.50000        0.47900
O          4.70400       -2.45000        1.58300
C          6.01800       -2.96200        1.34900
C          5.92800       -3.90700        0.16500
H          2.16600        2.06400        1.94000
H          3.55200        1.13500        2.56500
H          1.92100        0.55200        2.84800
H          3.23700        0.75300        0.07800
H          1.61100        0.14700        0.40800
H          6.32600       -3.50700        2.24800
H          6.75400       -2.17000        1.17700
H          5.19800       -4.69600        0.37000
H          6.89800       -4.36300       -0.04900
H          5.57700       -3.37400       -0.72200
