24
105-05-5.pdb
C          3.57000       -0.71700       -0.89100
C          2.46800       -0.11300       -0.03500
C          2.84200        1.23500        0.52700
C          2.58200        2.40600       -0.19700
C          2.89100        3.65800        0.33700
C          3.48700        3.76400        1.60200
C          3.81700        5.11200        2.19300
C          2.68600        5.67900        3.04200
C          3.76700        2.59200        2.31600
C          3.45400        1.33900        1.78100
H          3.24800       -1.68300       -1.29200
H          4.48200       -0.88100       -0.30700
H          3.82200       -0.06600       -1.73500
H          2.22300       -0.79800        0.78600
H          1.55100       -0.01800       -0.63000
H          2.12500        2.34800       -1.18300
H          2.67100        4.55200       -0.24100
H          4.06100        5.81700        1.39000
H          4.72200        5.02700        2.80700
H          1.77000        5.80800        2.45600
H          2.97200        6.65700        3.44100
H          2.45500        5.02500        3.88900
H          4.23400        2.64700        3.29600
H          3.68800        0.44500        2.35400
