15
105-56-6.pdb
C          2.58100       -1.42200        0.72700
C          2.57300       -0.14000       -0.08800
O          3.10800       -0.44200       -1.38500
C          4.46300       -0.32300       -1.49700
O          5.17900        0.27600       -0.70800
C          4.93200       -1.05500       -2.72300
C          6.24500       -1.64300       -2.48900
N          7.27700       -2.15300       -2.32000
H          2.18400       -1.25900        1.73100
H          3.59800       -1.82500        0.80600
H          1.97900       -2.19200        0.23000
H          3.12800        0.66100        0.41300
H          1.54600        0.21200       -0.22500
H          4.95000       -0.36100       -3.56600
H          4.22300       -1.86000       -2.94900
