39
10510-54-0.pdb
C          1.36400       -0.52700       -1.77100
C          2.77400       -0.48200       -2.33600
O          3.66700       -1.02100       -1.61300
O          2.89800        0.11600       -3.43400
N          1.15900        0.11300        1.68900
C          2.50700        0.06800        1.30700
C          3.23700        1.25000        1.16200
C          4.60400        1.22200        0.86300
C          5.27500        0.01500        0.72000
N          6.59900       -0.01500        0.50400
C          7.12600       -1.24500        0.33600
C          6.28200       -2.38900        0.41700
C          6.78900       -3.67000        0.23300
C          8.15700       -3.89300        0.08800
N          8.58400       -5.20300       -0.18100
C          9.03400       -2.78100        0.03200
C         10.43700       -2.92000       -0.09500
C         11.29500       -1.81900       -0.11100
C         10.77100       -0.53900       -0.04000
C          9.39300       -0.36400        0.07500
C          8.50300       -1.46000        0.13700
O          5.08200       -2.32800        0.81400
C          4.52600       -1.18500        0.86800
C          3.18000       -1.15000        1.24100
H          1.26700       -1.30400       -1.00700
H          0.63400       -0.73900       -2.55500
H          1.11900        0.44200       -1.32300
H          0.68900        0.95500        1.35600
H          0.63400       -0.70700        1.38400
H          2.73600        2.21400        1.24500
H          5.14300        2.15600        0.72500
H          6.08600       -4.49700        0.25600
H          7.96000       -5.95300        0.10000
H          9.55300       -5.42200        0.03300
H         10.90000       -3.90200       -0.16700
H         12.37000       -1.96600       -0.18500
H         11.43100        0.32500       -0.07100
H          9.01100        0.65800        0.12200
H          2.66500       -2.08900        1.39200
