20
10512-89-7.pdb
C          2.81700        0.28200       -1.45400
C          2.45200       -0.07600       -0.01700
C          3.05100       -1.42400        0.39300
C          3.30200       -1.29100        1.87700
N          3.77800        0.09600        2.00800
C          2.99500        0.94600        0.98700
C          1.87500        1.73500        1.73600
O          2.00900        1.58000        2.99500
O          1.04200        2.35200        1.04000
H          2.43700       -0.47300       -2.15000
H          3.90300        0.34300       -1.58500
H          2.39000        1.25000       -1.73400
H          1.35900       -0.13800        0.05300
H          3.99500       -1.61600       -0.13000
H          2.37300       -2.25400        0.17100
H          4.07200       -1.96600        2.25700
H          2.38300       -1.38600        2.46500
H          4.78400        0.25000        1.94100
H          3.43000        0.51500        2.90700
H          3.71800        1.65000        0.56200
