26
10538-51-9.pdb
C          1.38700        0.30300        0.54800
O          2.55700       -0.14600       -0.12100
C          3.06800        0.67700       -1.08700
C          2.55600        1.91800       -1.45200
C          3.17200        2.66300       -2.46100
C          4.30800        2.17800       -3.12300
O          4.94900        2.86600       -4.12400
C          4.31300        4.02800       -4.63700
C          4.84500        0.92700       -2.75700
C          6.09100        0.41600       -3.37200
C          6.42700       -0.87900       -3.49400
C          7.75200       -1.34800       -4.09900
O          8.55500       -0.45000       -4.47500
O          7.87600       -2.60600       -4.13400
C          4.21100        0.19700       -1.73200
H          1.08900       -0.47100        1.26100
H          0.55800        0.44600       -0.15300
H          1.58700        1.21900        1.11500
H          1.68200        2.34200       -0.96900
H          2.74200        3.62900       -2.70300
H          4.89800        4.38600       -5.49000
H          4.29700        4.82700       -3.88800
H          3.30300        3.80600       -4.99800
H          6.78300        1.17000       -3.74400
H          5.77200       -1.67900       -3.16600
H          4.62000       -0.76000       -1.41600
