17
10531-78-9.pdb
C          1.05500       -0.08400       -0.00200
C          2.55700       -0.07000       -0.00200
C          3.26000        1.14900        0.00100
C          4.66100        1.19400        0.00800
C          5.30300       -0.03600        0.01100
O          6.64800       -0.27100        0.01800
C          6.73300       -1.63300        0.01900
N          5.58500       -2.27600        0.01100
C          4.65900       -1.26300        0.00700
C          3.25800       -1.29300        0.00000
H          0.64400        0.93100       -0.00400
H          0.68300       -0.59500        0.89100
H          0.68300       -0.59800       -0.89400
H          2.71100        2.09000       -0.00200
H          5.21000        2.12700        0.01200
H          7.72900       -2.05100        0.02500
H          2.73900       -2.24500       -0.00200
