29
10538-49-5.pdb
C          1.35900        0.81400       -0.16300
O          2.51600        0.03900        0.12800
C          3.11300       -0.59500       -0.92600
C          2.67900       -0.56700       -2.24700
C          3.36600       -1.28500       -3.23100
C          4.49700       -2.03700       -2.90300
O          5.18000       -2.83400       -3.78600
C          4.75200       -2.81500       -5.14500
C          4.97200       -2.04300       -1.57800
C          6.25100       -2.76200       -1.19300
C          6.10400       -3.84700       -0.13000
C          5.35500       -5.11400       -0.47700
O          4.83800       -5.21800       -1.71500
O          5.23700       -6.02500        0.33200
C          4.26100       -1.32300       -0.60100
H          0.99300        1.23700        0.77700
H          0.55900        0.19500       -0.58300
H          1.60600        1.64700       -0.83000
H          1.80300       -0.00300       -2.55000
H          2.98000       -1.23900       -4.24400
H          5.40100       -3.49100       -5.71000
H          4.85300       -1.81400       -5.57800
H          3.72600       -3.18700       -5.23900
H          6.94500       -1.99800       -0.81900
H          6.75000       -3.19000       -2.07000
H          5.64200       -3.43300        0.77300
H          7.11800       -4.17100        0.14000
H          4.94600       -4.44700       -2.30300
H          4.60200       -1.31600        0.43300
