17
10531-80-3.pdb
C          0.90600       -0.01300       -0.05400
C          2.40900        0.00400       -0.05300
C          3.10000        1.22900       -0.05000
C          4.50400        1.28100       -0.04500
C          5.21000        0.07300       -0.04100
N          6.55800       -0.18600       -0.03400
C          6.60900       -1.50100       -0.03300
O          5.40500       -2.14000       -0.04000
C          4.50000       -1.11700       -0.04500
C          3.11400       -1.21400       -0.05100
H          0.49400        1.00200       -0.05600
H          0.53300       -0.52400        0.83900
H          0.53500       -0.52700       -0.94700
H          2.54800        2.16700       -0.05200
H          5.03300        2.22800       -0.04200
H          7.48800       -2.13000       -0.02800
H          2.61500       -2.17600       -0.05200
