27
105400-81-5.pdb
O          3.46200        1.61900        1.66700
C          2.71200        0.60600        1.82800
O          1.69000        0.45400        2.53500
C          3.12300       -0.60300        1.00000
C          4.64000       -0.58200        0.84400
N          5.00800        0.66600        0.09000
C          6.43300        0.77600       -0.23900
C          6.78900       -0.33600       -1.22000
C          6.26400       -1.69000       -0.79200
C          6.79500       -2.83900       -1.39900
C          6.33700       -4.10500       -1.04400
C          5.34600       -4.23700       -0.07700
C          4.80200       -3.10300        0.52700
C          5.22600       -1.81300        0.16100
H          2.61500       -0.57300        0.03000
H          2.78300       -1.50200        1.52300
H          5.12700       -0.49100        1.82500
H          4.66400        1.43400        0.73300
H          4.39500        0.76600       -0.72300
H          7.00100        0.70300        0.69500
H          6.59800        1.76300       -0.68100
H          7.87900       -0.37400       -1.32900
H          6.36400       -0.10600       -2.20500
H          7.57500       -2.75600       -2.15400
H          6.75400       -4.99000       -1.51600
H          4.99300       -5.22500        0.21100
H          4.04100       -3.24900        1.29200
