17
105596-63-2.pdb
C          3.41600       -0.95400        0.53500
O          2.56600        0.12500        0.16800
C          3.14100        0.92900       -0.79900
C          2.64900        2.22000       -0.90400
C          3.20900        3.08000       -1.85700
C          4.22200        2.57400       -2.67700
C          4.62800        1.26100       -2.51100
N          4.11600        0.41900       -1.58700
C          2.74700        4.50900       -1.98800
O          1.82800        4.89500       -1.20100
O          3.31700        5.21800       -2.87600
H          2.93300       -1.49600        1.35400
H          4.38100       -0.58700        0.90400
H          3.55400       -1.66000       -0.29100
H          1.85800        2.57000       -0.24800
H          4.68100        3.20800       -3.43000
H          5.40700        0.84200       -3.14000
