16
10576-12-2.pdb
C          1.22700        0.38500        0.45800
C          2.60100       -0.07200        0.00500
O          3.12400       -0.94200        1.01800
C          4.44900       -1.22700        0.95900
C          4.90700       -1.93900        2.19800
N          5.19400       -0.89200       -0.05000
O          6.52200       -1.28600        0.15300
H          0.81600        1.13000       -0.22800
H          1.27700        0.81500        1.46400
H          0.53800       -0.46500        0.51000
H          3.25200        0.80200       -0.11400
H          2.52700       -0.61400       -0.94300
H          4.05800       -2.15900        2.85400
H          5.60800       -1.30000        2.74100
H          5.39100       -2.88200        1.93200
H          6.95900       -0.98000       -0.66400
