20
10599-70-9.pdb
C          1.25500        0.88700       -0.27900
C          2.42000       -0.02300        0.01400
O          2.74100       -0.25800        1.17900
C          3.13200       -0.61200       -1.11500
C          2.90900       -0.45100       -2.51500
C          3.85500       -1.21700       -3.16000
C          4.16200       -1.48200       -4.58000
O          4.64800       -1.84300       -2.25000
C          4.20800       -1.47900       -1.01400
C          4.93400       -2.06200        0.13600
H          0.87000        1.29800        0.65900
H          0.45600        0.32200       -0.76800
H          1.57600        1.71800       -0.91200
H          2.15200        0.14900       -3.00100
H          3.49600       -0.91700       -5.23900
H          4.04300       -2.54600       -4.80400
H          5.19300       -1.19300       -4.81000
H          5.68500       -2.78700       -0.19300
H          4.23800       -2.58000        0.80300
H          5.44300       -1.27800        0.70400
