23
106-69-4.pdb
O          0.86300       -0.04400       -0.04100
C          2.28300       -0.05300       -0.00100
C          2.81400        0.66900       -1.23100
C          4.34000        0.69300       -1.25000
C          4.87100        1.42200       -2.48900
C          6.40200        1.45800       -2.52600
O          6.91400        0.12300       -2.54400
C          6.91100        2.24000       -3.74600
O          8.33500        2.27900       -3.78700
H          0.55300       -0.52000        0.74800
H          2.62500       -1.09300        0.02000
H          2.60900        0.44800        0.91600
H          2.41600        1.69100       -1.25500
H          2.43100        0.17700       -2.13400
H          4.71800       -0.33600       -1.23100
H          4.71200        1.19100       -0.34700
H          4.48000        2.44600       -2.50800
H          4.49600        0.90800       -3.38400
H          6.78700        1.92300       -1.61100
H          6.77300       -0.23800       -3.43500
H          6.54400        3.27200       -3.72700
H          6.57800        1.76900       -4.67600
H          8.66000        2.36600       -2.87400
