29
106-23-0.pdb
C          3.24600        1.32600       -0.15400
C          2.64200       -0.07300        0.01800
C          1.09400       -0.05400        0.02300
C          0.50900        0.56000       -1.25300
C         -0.99400        0.52800       -1.32200
C         -1.70400        1.05500       -2.34000
C         -1.08500        1.72200       -3.54100
C         -3.20800        1.02100       -2.35700
C          3.19000       -0.69300        1.31200
C          2.80500       -2.14300        1.44500
O          2.20800       -2.59400        2.42100
H          4.34000        1.27600       -0.17200
H          2.95200        1.98900        0.66700
H          2.94100        1.79200       -1.09500
H          2.97000       -0.68600       -0.83200
H          0.72200       -1.08300        0.11700
H          0.72900        0.49300        0.90100
H          0.91600        0.02200       -2.11700
H          0.81800        1.60800       -1.31700
H         -1.51900        0.06400       -0.48800
H          0.00800        1.73900       -3.51100
H         -1.42400        2.76000       -3.61200
H         -1.37400        1.19500       -4.45500
H         -3.62400        0.53100       -1.47200
H         -3.56200        0.47800       -3.24000
H         -3.60700        2.04000       -2.39500
H          2.83300       -0.14500        2.19200
H          4.28600       -0.65700        1.31800
H          3.12100       -2.80400        0.62100
