26
106-72-9.pdb
C          0.94100        0.17400        0.01200
C          2.46300        0.12700       -0.08700
C          2.96400       -0.85600       -1.15700
C          2.52200       -2.29700       -0.89500
C          3.09300       -3.25800       -1.89800
C          4.24800       -3.94300       -1.79400
C          5.22800       -3.80000       -0.66200
C          4.65500       -4.93500       -2.85100
C          3.03200        1.50300       -0.38700
O          2.36200        2.52300       -0.51500
H          0.53200       -0.78200        0.35300
H          0.48900        0.41600       -0.95600
H          0.61800        0.93600        0.72900
H          2.86900       -0.16500        0.89000
H          4.06200       -0.81300       -1.19100
H          2.62100       -0.53400       -2.14900
H          1.43000       -2.37500       -0.95700
H          2.78300       -2.59700        0.12600
H          2.46700       -3.42100       -2.77500
H          4.92600       -3.05800        0.08100
H          6.20200       -3.48600       -1.05100
H          5.35200       -4.75600       -0.14400
H          3.90800       -5.02500       -3.64600
H          4.78400       -5.92700       -2.40600
H          5.60100       -4.63300       -3.31200
H          4.13300        1.55400       -0.44900
