32
106-32-1.pdb
C          1.01000        0.01500       -0.09800
C          2.53000       -0.00200       -0.07500
C          3.06100       -0.94000        1.00700
C          4.58700       -0.95000        1.02300
C          5.13100       -1.87800        2.10900
C          6.65700       -1.86200        2.10500
C          7.24000       -2.76900        3.18400
C          8.74200       -2.84500        3.06400
O          9.41800       -2.24100        2.24300
O          9.21900       -3.75700        3.95800
C         10.55200       -4.21500        3.69600
C         10.46300       -5.39300        2.74300
H          0.65200        0.69200       -0.87900
H          0.60900        0.35800        0.86100
H          0.61000       -0.98300       -0.30200
H          2.90000        1.01500        0.09900
H          2.90100       -0.31800       -1.05700
H          2.68800       -1.95600        0.83100
H          2.68500       -0.62300        1.98700
H          4.95900        0.06800        1.19200
H          4.96300       -1.27200        0.04300
H          4.77200       -2.90100        1.93700
H          4.76000       -1.56300        3.09000
H          7.01900       -0.83800        2.25700
H          7.02000       -2.18000        1.11900
H          6.84500       -3.78500        3.05900
H          6.97700       -2.40100        4.18100
H         10.98800       -4.53200        4.64900
H         11.19000       -3.42000        3.29400
H          9.85200       -6.18900        3.18300
H         11.45500       -5.79400        2.51000
H          9.97000       -5.10400        1.80800
