57
106-14-9.pdb
C          0.93200       -0.01800       -0.07200
C          2.45000        0.00500       -0.06600
C          2.98200        0.77700       -1.26700
C          4.50500        0.80100       -1.26700
C          5.01500        1.57800       -2.47200
C          6.53800        1.61300       -2.48100
C          7.05500        2.39200       -3.68500
O          6.56900        3.73200       -3.63700
C          8.57800        2.39600       -3.69400
C          9.10600        3.17100       -4.89200
C         10.62400        3.16800       -4.89400
C         11.13400        3.94900       -6.09200
C         12.65100        3.95500       -6.10700
C         13.15900        4.73700       -7.30900
C         14.67900        4.74200       -7.32200
C         15.21200        5.52000       -8.51700
C         16.73700        5.50900       -8.50700
C         17.29700        6.28500       -9.70000
C         18.80900        6.29100       -9.71300
O         19.35000        6.97100      -10.75900
O         19.51800        5.75200       -8.89000
H          0.55900       -0.57400        0.79200
H          0.55400       -0.49900       -0.98000
H          0.52700        0.99800       -0.02800
H          2.83100       -1.02200       -0.08500
H          2.80500        0.46800        0.86200
H          2.59800        1.80500       -1.24800
H          2.62200        0.31600       -2.19500
H          4.89700       -0.22300       -1.29200
H          4.87100        1.26800       -0.34400
H          4.61600        2.59900       -2.44200
H          4.65200        1.11500       -3.39700
H          6.93400        0.59000       -2.50200
H          6.89000        2.08400       -1.55500
H          6.68000        1.94000       -4.61100
H          6.90200        4.14000       -2.82000
H          8.95500        1.36600       -3.72100
H          8.95600        2.86200       -2.77500
H          8.74500        4.20600       -4.86300
H          8.73000        2.72200       -5.81900
H         10.99700        2.13800       -4.92900
H         10.99900        3.61900       -3.96700
H         10.75800        4.97900       -6.05300
H         10.75300        3.50000       -7.01800
H         13.02700        2.92400       -6.14400
H         13.03000        4.40400       -5.18000
H         12.78000        5.76600       -7.26800
H         12.77600        4.28600       -8.23300
H         15.04700        3.70800       -7.35500
H         15.05100        5.18700       -6.39000
H         14.84100        6.55100       -8.48100
H         14.83800        5.07200       -9.44500
H         17.09400        4.47400       -8.52700
H         17.09700        5.94400       -7.56800
H         16.96000        7.32400       -9.65200
H         16.95700        5.82400      -10.63000
H         18.71500        7.37400      -11.37500
