14
106-57-0.pdb
O          2.68100        0.05600       -0.04400
C          1.45600        0.02100       -0.05100
C          0.64200       -1.23200       -0.38800
N         -0.70400       -1.16000        0.15800
C         -1.45500       -0.01800       -0.01500
O         -2.68000       -0.05400        0.01500
C         -0.64900        1.23300       -0.37800
N          0.70900        1.16300        0.13800
H          1.12900       -2.11100        0.04200
H          0.57400       -1.32800       -1.47600
H         -1.24800       -2.00800        0.26000
H         -1.12700        2.11400        0.05900
H         -0.60500        1.32400       -1.46700
H          1.25400        2.01100        0.22700
