20
106-36-5.pdb
C          0.96000       -0.87100        2.14900
C          2.47700       -0.87600        2.11600
C          3.01300       -1.32400        0.76000
O          4.44800       -1.35500        0.78500
C          4.99500       -2.49300        1.30200
O          4.36000       -3.45100        1.72300
C          6.50000       -2.38900        1.27700
C          7.15300       -3.60200        1.91700
H          0.60400       -0.55600        3.13400
H          0.56200       -1.87100        1.94900
H          0.55300       -0.18300        1.40200
H          2.85600       -1.53000        2.90900
H          2.86000        0.12600        2.34600
H          2.72200       -0.60500       -0.01400
H          2.60700       -2.29700        0.45900
H          6.79800       -1.48800        1.82200
H          6.82500       -2.30500        0.23500
H          6.85000       -3.70300        2.96500
H          8.24300       -3.51500        1.88100
H          6.86500       -4.52300        1.39700
