40
106-00-3.pdb
C          2.36400        1.58100       -0.33200
O          3.10700        1.44100        0.86600
C          3.65700        0.13000        1.02800
C          4.40200        0.13000        2.35400
O          4.92000       -1.14900        2.72800
C          6.27700       -1.24900        2.62100
O          6.95600       -0.69700        1.76900
C          6.79600       -2.03200        3.80600
C          8.32100       -2.05200        3.87700
C          8.81000       -2.68000        5.18500
C         10.33500       -2.72300        5.24400
C         10.85500       -3.18200        6.58800
O         10.17400       -3.53400        7.54000
O         12.21000       -3.03000        6.60900
C         12.72100       -2.52300        7.84500
C         13.47100       -3.55600        8.67200
O         14.01800       -2.86100        9.79900
C         14.76400       -3.70800       10.65600
H          1.98400        2.60700       -0.37500
H          1.51300        0.89500       -0.33900
H          3.00300        1.40900       -1.20300
H          4.33500       -0.10400        0.19900
H          2.85500       -0.61800        1.03800
H          3.71000        0.42300        3.15100
H          5.18200        0.90200        2.35200
H          6.40400       -3.05300        3.76200
H          6.41000       -1.53700        4.70600
H          8.70700       -1.02800        3.80200
H          8.72300       -2.60200        3.01800
H          8.40900       -3.69500        5.28500
H          8.42300       -2.10200        6.03500
H         10.72200       -1.70900        5.08500
H         10.73100       -3.38100        4.46200
H         11.93300       -2.05100        8.44700
H         13.40400       -1.70900        7.58000
H         14.27700       -4.00500        8.07900
H         12.79900       -4.35100        9.00500
H         15.14200       -3.10300       11.48500
H         15.61700       -4.13800       10.12300
H         14.12900       -4.49900       11.06300
