45
106-02-5.pdb
O          1.17300       -0.20700        0.16100
C          2.38600       -0.12400        0.03100
C          3.14500        1.17800        0.00800
C          3.25800        1.65600        1.45800
C          4.09700        2.91200        1.60200
C          4.26000        3.33500        3.07300
C          5.44900        2.67100        3.77900
C          5.05000        1.48000        4.65300
C          6.27900        0.84300        5.30600
C          5.97000       -0.47100        6.03300
C          6.19400       -1.71600        5.16200
C          4.94800       -2.14400        4.38500
C          5.24300       -3.34500        3.48400
C          4.02600       -3.81000        2.67200
C          3.93100       -3.15200        1.29200
C          2.97900       -1.96800        1.28100
O          3.25600       -1.15600        0.13400
H          2.61200        1.89300       -0.62300
H          4.13400        1.01700       -0.43700
H          3.68800        0.85800        2.06300
H          2.25000        1.83800        1.85500
H          3.60300        3.72800        1.05900
H          5.07900        2.77200        1.13600
H          3.33000        3.17100        3.63000
H          4.43800        4.41800        3.08000
H          5.93000        3.41800        4.42200
H          6.20600        2.36000        3.04800
H          4.51500        0.74600        4.05300
H          4.35900        1.81400        5.43700
H          6.68200        1.55700        6.03700
H          7.07000        0.68900        4.56300
H          4.95900       -0.46200        6.45500
H          6.66000       -0.54300        6.88300
H          6.49300       -2.54500        5.81700
H          7.03100       -1.55200        4.47300
H          4.58800       -1.31600        3.77600
H          4.15300       -2.40400        5.09300
H          5.57200       -4.17800        4.11800
H          6.08200       -3.11400        2.81700
H          3.09900       -3.66400        3.24100
H          4.12800       -4.89000        2.51600
H          3.55500       -3.88600        0.56800
H          4.92100       -2.85900        0.91900
H          3.14000       -1.34700        2.16400
H          1.93900       -2.31600        1.28300
