29
106-30-9.pdb
C          0.87800        0.02900       -0.03000
C          2.39900        0.01700       -0.02500
C          2.93600       -1.14400        0.80300
C          4.46600       -1.17300        0.81100
C          4.96800       -2.35200        1.64100
C          6.49100       -2.42900        1.66900
C          6.94500       -3.54100        2.58300
O          6.20600       -4.29500        3.20100
O          8.30400       -3.50900        2.68700
C          8.82900       -4.19400        3.83500
C          8.84500       -3.20700        4.98800
H          0.50800        0.86600       -0.62900
H          0.48400        0.13500        0.98600
H          0.48000       -0.89800       -0.45700
H          2.76600        0.96700        0.37900
H          2.76300       -0.06100       -1.05600
H          2.55600       -2.09100        0.40200
H          2.56800       -1.06200        1.83400
H          4.85300       -0.23400        1.22600
H          4.84300       -1.25500       -0.21600
H          4.56300       -3.28700        1.23900
H          4.58500       -2.25800        2.66700
H          6.89800       -1.48900        2.06000
H          6.88800       -2.60400        0.66500
H          9.84700       -4.51400        3.59500
H          8.25400       -5.09300        4.08100
H          9.45800       -2.33700        4.73100
H          9.24600       -3.66900        5.89500
H          7.83900       -2.83000        5.19600
