29
106-25-2.pdb
C          0.96000       -0.69900        0.82700
C          2.46100       -0.70200        0.90100
C          3.07900       -0.36600        2.23100
C          3.19700       -0.98400       -0.19100
C          4.70100       -0.97300       -0.26200
C          5.28100       -2.34700       -0.62000
C          6.79700       -2.47300       -0.64900
C          7.67600       -1.29100       -0.32600
C          7.40000       -3.64300       -0.95200
C          6.74500       -4.94600       -1.28100
O          7.13900       -5.31900       -2.59200
H          0.50400       -0.43600        1.78600
H          0.58600       -1.69000        0.54500
H          0.61400        0.03500        0.09100
H          2.32600       -0.16400        2.99700
H          3.70500        0.52900        2.14900
H          3.69200       -1.20100        2.59000
H          2.68500       -1.21500       -1.12600
H          5.12600       -0.64200        0.69000
H          4.99700       -0.23900       -1.02000
H          4.89600       -2.63300       -1.60900
H          4.89300       -3.08000        0.10000
H          7.12600       -0.37800       -0.09200
H          8.32500       -1.05500       -1.17700
H          8.30400       -1.51200        0.54400
H          8.49000       -3.68500       -0.95200
H          5.65300       -4.91100       -1.24600
H          7.08100       -5.71900       -0.58500
H          6.84800       -4.60200       -3.18000
