22
10601-19-1.pdb
C          1.26300        0.41500        0.75100
O          2.36000        0.05300       -0.07900
C          3.07700        1.08200       -0.63100
C          2.75400        2.43500       -0.54100
C          3.56100        3.41400       -1.13200
C          4.71000        2.99200       -1.80800
N          5.67900        3.72800       -2.44800
C          6.63400        2.89700       -2.96600
C          6.28100        1.59300       -2.67500
C          7.03900        0.41800       -3.06100
O          8.09300        0.45800       -3.68900
C          5.06100        1.64700       -1.92900
C          4.22000        0.68100       -1.33500
H          0.81300       -0.50600        1.13500
H          0.49600        0.94700        0.18000
H          1.59800        1.00600        1.61000
H          1.86800        2.77300       -0.01300
H          3.30000        4.46500       -1.05600
H          5.68600        4.73700       -2.51400
H          7.48800        3.29400       -3.50000
H          6.60600       -0.54800       -2.75300
H          4.45700       -0.37800       -1.40500
