35
106391-87-1.pdb
C          3.12400        2.04300       -2.39800
C          2.67000        1.16800       -1.22500
C          3.17400        1.76400        0.09100
C          3.05200       -0.32500       -1.42500
C          2.45000       -1.23200       -0.33700
O          2.64800       -2.61100       -0.63900
N          4.49900       -0.53700       -1.53900
C          5.07000       -0.82600       -2.74600
O          4.49100       -0.73200       -3.81600
O          6.34600       -1.26500       -2.57800
C          7.07700       -1.73900       -3.74100
C          7.36200       -0.59300       -4.72000
C          8.42400       -2.26500       -3.21500
C          6.36000       -2.91900       -4.42400
H          2.78500        3.07700       -2.26200
H          2.70100        1.68000       -3.34100
H          4.21400        2.06200       -2.49500
H          1.57500        1.21700       -1.20000
H          4.26500        1.80100        0.12600
H          2.81900        1.19200        0.95400
H          2.79700        2.78600        0.21200
H          2.60400       -0.64600       -2.37500
H          2.88500       -1.03700        0.64900
H          1.36900       -1.07200       -0.27400
H          3.41400       -2.91800       -0.12700
H          5.08900       -0.60100       -0.72600
H          7.92400        0.20800       -4.22300
H          6.44700       -0.13300       -5.10100
H          7.94300       -0.93700       -5.58100
H          8.97600       -1.48000       -2.68300
H          9.05600       -2.63700       -4.03000
H          8.27400       -3.08100       -2.49900
H          5.39400       -2.63500       -4.84500
H          6.16200       -3.71600       -3.69800
H          6.96100       -3.33000       -5.23900
