38
106946-74-1.pdb
C          0.85400       -0.12700        0.07700
C          2.37600       -0.07300        0.10400
C          2.96800        1.02600        1.02200
C          2.52200        0.80700        2.47700
C          4.52500        1.04500        0.92500
C          5.06800        1.34100       -0.49400
O          4.64100        2.61700       -0.96900
N          5.12100        1.98000        1.88300
C          6.39200        1.77300        2.33900
O          7.05200        0.78300        2.04900
O          6.80100        2.78500        3.14800
C          8.10700        2.68500        3.78500
C          9.23200        2.74200        2.74100
C          8.24000        3.91100        4.70500
C          8.20800        1.43100        4.66700
H          0.52200       -0.87900       -0.64700
H          0.43400        0.83800       -0.22200
H          0.43700       -0.40800        1.04800
H          2.70300        0.08500       -0.92900
H          2.75900       -1.05500        0.40900
H          2.57600        2.00100        0.70600
H          2.85300       -0.16900        2.84800
H          1.43300        0.85700        2.57200
H          2.92300        1.57800        3.14100
H          4.88200        0.04300        1.19800
H          4.76100        0.57800       -1.21600
H          6.16400        1.34500       -0.49500
H          3.67500        2.59100       -1.06800
H          4.76500        2.92400        1.97000
H          9.17500        3.67000        2.16000
H          9.17400        1.92300        2.02100
H         10.21600        2.69300        3.21800
H          8.13800        4.84500        4.14500
H          9.21200        3.92200        5.21500
H          7.45600        3.91600        5.47000
H          8.12700        0.50400        4.09300
H          7.39600        1.41200        5.40300
H          9.16300        1.39600        5.19900
