6
107-22-2.pdb
O          0.96700       -0.01500       -0.01100
C          2.18600       -0.04300        0.03100
C          2.98700        0.66600       -1.02000
O          4.20700        0.63800       -0.97700
H          2.78100       -0.56100        0.79800
H          2.39200        1.18200       -1.78800
