16
107-88-0.pdb
C          0.91100       -0.08500       -0.01900
C          2.43200       -0.07900       -0.02800
O          2.88600       -0.19800       -1.37700
C          3.00100        1.19800        0.60300
C          4.52600        1.21400        0.62600
O          5.06300        1.18300       -0.69100
H          0.53100       -0.99600       -0.49600
H          0.50900        0.75800       -0.59100
H          0.51800       -0.03700        1.00100
H          2.80000       -0.95600        0.51600
H          2.52800        0.56100       -1.87500
H          2.62500        1.30300        1.62700
H          2.65400        2.06400        0.02600
H          4.92500        0.36300        1.18500
H          4.88100        2.13200        1.10400
H          4.66300        0.40600       -1.13600
