10
107-91-5.pdb
N          1.17500       -0.15200        0.10700
C          2.53900       -0.08300        0.04800
O          3.08600        0.50300       -0.88100
C          3.28800       -0.77300        1.15700
C          4.15800        0.23500        1.89100
N          4.88000        1.07100        2.50000
H          0.65700        0.33600       -0.61500
H          0.65600       -0.55900        0.87000
H          3.90900       -1.56200        0.72100
H          2.59600       -1.23700        1.86700
