19
107-43-7.pdb
C          1.03900       -0.01400        0.07700
N          2.53700        0.03900       -0.00200
C          3.04200       -0.56800       -1.30200
C          3.04400        1.46700        0.11800
C          3.14900       -0.79800        1.19600
C          4.69900       -0.85700        1.28400
O          5.22000       -1.78200        0.60100
O          5.21700        0.10200        1.91800
H          0.62500        0.56200       -0.75600
H          0.72300        0.41800        1.03100
H          0.72100       -1.05900        0.01000
H          2.57800       -0.02200       -2.13100
H          2.74600       -1.62000       -1.33200
H          4.12800       -0.46300       -1.35800
H          2.58200        2.05600       -0.68100
H          4.13000        1.48200       -0.00100
H          2.74800        1.86100        1.09400
H          2.74400       -1.81200        1.09700
H          2.74100       -0.35700        2.11300
