9
107-29-9.pdb
C          1.12500        0.06700       -0.03700
C          2.61900        0.09200       -0.08800
N          3.23000        0.58800       -1.11400
O          4.61100        0.48800       -0.90900
H          0.80000       -0.38600        0.90200
H          0.74000       -0.51800       -0.87600
H          0.74000        1.08800       -0.10000
H          3.16400       -0.32500        0.77600
H          4.97100        0.88300       -1.72500
