20
1070-34-4.pdb
C          2.46500       -1.92500        1.12900
C          2.51300       -0.72800        0.19700
O          3.01300       -1.19100       -1.06600
C          4.35700       -1.16600       -1.20900
O          5.16100       -0.54600       -0.52300
C          4.80300       -2.01300       -2.36200
C          4.91000       -1.20000       -3.63100
C          6.01800       -0.17400       -3.73200
O          6.69700        0.15100       -2.62100
O          6.27400        0.36500       -4.80200
H          2.06200       -1.65500        2.10700
H          3.46600       -2.35000        1.26200
H          1.84700       -2.71700        0.69300
H          3.12100        0.08400        0.61300
H          1.50400       -0.33500        0.03400
H          4.08500       -2.83200       -2.48700
H          5.75800       -2.47900       -2.09300
H          3.96200       -0.68900       -3.83500
H          5.09300       -1.91000       -4.44700
H          6.39900       -0.17900       -1.74600
