23
1070-62-8.pdb
C          5.06400        0.12500        2.44200
C          3.81800       -0.09100        1.60200
O          3.86000       -1.43400        1.10200
C          4.47400       -1.58500       -0.10200
O          4.73400       -0.68700       -0.89100
C          4.91100       -3.01700       -0.28100
C          6.43700       -3.06300       -0.25700
C          6.97900       -4.48100       -0.38600
C          8.49400       -4.49800       -0.35700
O          8.99800       -5.74300       -0.50300
O          9.20700       -3.51700       -0.22000
H          5.08800        1.12900        2.87000
H          5.96800       -0.02800        1.84200
H          5.10300       -0.60900        3.25500
H          3.74300        0.65200        0.80000
H          2.92200        0.00700        2.22300
H          4.50400       -3.39400       -1.22400
H          4.49900       -3.63500        0.52500
H          6.80200       -2.61200        0.67500
H          6.83700       -2.44000       -1.06800
H          6.64500       -4.92100       -1.33200
H          6.61600       -5.09600        0.44500
H          8.31700       -6.43700       -0.60600
