15
1072-83-9.pdb
C          1.14300       -0.32700       -0.50900
C          2.49500       -0.04000        0.09500
O          2.93700        1.10700        0.12800
C          3.22800       -1.15500        0.66100
N          4.43100       -0.97700        1.31100
C          4.89900       -2.17700        1.77400
C          4.00500       -3.15200        1.39700
C          2.95400       -2.51200        0.69600
H          0.77400        0.56900       -1.01500
H          0.43800       -0.60000        0.28100
H          1.21400       -1.13000       -1.24800
H          4.87800       -0.07500        1.42800
H          5.82700       -2.23200        2.32800
H          4.09800       -4.21000        1.60800
H          2.08800       -3.00000        0.26700
