15
1072-72-6.pdb
O          2.52500       -0.02500        0.26300
C          1.37700       -0.01700       -0.18100
C          0.65800        1.27300       -0.49000
C         -0.60300        1.37700        0.34600
S         -1.75300        0.01400       -0.02500
C         -0.63700       -1.38100        0.33000
C          0.63900       -1.29700       -0.48700
H          0.44500        1.31100       -1.56400
H          1.32700        2.11000       -0.26000
H         -1.11300        2.32300        0.13900
H         -0.36900        1.35100        1.41600
H         -1.16700       -2.31100        0.10000
H         -0.41500       -1.38200        1.40300
H          0.44000       -1.34000       -1.56400
H          1.29000       -2.14400       -0.24200
