21
1073-13-8.pdb
C         -1.88600       -0.30600        1.41200
C         -1.37700        0.00400       -0.00500
C         -2.59100        0.24200       -0.92000
C         -0.55600       -1.18000       -0.56500
C          0.82100       -1.30000        0.08000
C          1.58200        0.00200       -0.01900
O          2.80900        0.04400       -0.04000
C          0.81100        1.26900        0.00200
C         -0.52800        1.25800        0.04000
H         -2.51600       -1.20200        1.41500
H         -2.48500        0.52200        1.80800
H         -1.06300       -0.47600        2.11500
H         -3.22300       -0.65100       -0.97400
H         -2.28000        0.49500       -1.94100
H         -3.21300        1.06600       -0.55100
H         -0.41800       -1.04900       -1.64800
H         -1.10400       -2.12100       -0.43600
H          1.39300       -2.07900       -0.43600
H          0.74500       -1.57700        1.13600
H          1.38700        2.18700        0.02500
H         -1.05000        2.21100        0.11300
