28
107377-07-1.pdb
C          6.63700        1.88300       -0.31900
C          5.44000        0.95100       -0.20500
C          5.80300       -0.27100        0.63500
C          4.62600       -1.23500        0.79500
C          4.98100       -2.43400        1.64400
C          5.43700       -2.26500        2.95800
C          5.72500       -3.37100        3.75900
C          5.53600       -4.66500        3.26700
C          5.10000       -4.84500        1.94700
C          4.82800       -3.73400        1.14100
C          5.81500       -5.80400        4.17500
N          5.14500       -6.97400        3.95000
O          6.58600       -5.69600        5.12300
H          6.38400        2.76100       -0.92100
H          7.48200        1.37400       -0.79400
H          6.95800        2.22700        0.66900
H          5.11900        0.64100       -1.20600
H          4.60400        1.48900        0.25600
H          6.14700        0.07300        1.61700
H          6.64700       -0.79900        0.17400
H          4.28900       -1.56300       -0.19700
H          3.77300       -0.72500        1.26000
H          5.57100       -1.26900        3.37600
H          6.08200       -3.21900        4.77500
H          4.98600       -5.84000        1.52600
H          4.49700       -3.89100        0.11700
H          4.38200       -7.06400        3.29700
H          5.27300       -7.70500        4.63900
