16
1074-36-8.pdb
O          3.34500        0.15600       -1.04300
C          2.54800       -0.15800        0.00000
O          1.36300       -0.42100       -0.11800
C          3.25800       -0.20400        1.30200
C          2.82500       -1.12500        2.26200
C          3.45800       -1.19400        3.50800
C          4.52300       -0.33800        3.80400
S          5.35500       -0.40500        5.37500
C          4.94400        0.59200        2.84700
C          4.31000        0.66900        1.60300
H          4.30000        0.15900       -0.84800
H          1.98900       -1.79000        2.04500
H          3.10400       -1.91900        4.23700
H          4.49400       -1.22400        5.99700
H          5.76200        1.27400        3.07000
H          4.62800        1.43400        0.90000
