27
1074-92-6.pdb
C          2.45600        0.33700       -0.05200
C          0.96900        0.10300        0.00400
C          0.17500        1.27700        0.01000
C         -1.21200        1.22300        0.01400
C         -1.84000       -0.00900        0.00800
C         -1.07300       -1.17700        0.01200
C          0.34400       -1.17200        0.03500
C          1.08000       -2.54200        0.01200
C          1.28000       -2.95500       -1.46100
C          2.45000       -2.56700        0.72300
C          0.26400       -3.66900        0.71000
H          2.69400        1.40000       -0.18000
H          2.89600       -0.17900       -0.91000
H          2.93100        0.03200        0.88400
H          0.65000        2.25700       -0.00300
H         -1.79700        2.13900        0.00900
H         -2.92500       -0.07000       -0.00600
H         -1.63300       -2.10800       -0.01900
H          1.91100       -2.23700       -1.99700
H          0.32400       -3.01400       -1.99500
H          1.76000       -3.93700       -1.53500
H          3.23000       -2.05700        0.15300
H          2.81900       -3.59300        0.84400
H          2.38700       -2.12300        1.72300
H         -0.66800       -3.90700        0.18900
H          0.02300       -3.39800        1.74400
H          0.83000       -4.60900        0.73800
