17
1074-98-2.pdb
C          2.56400       -1.23200        0.01400
C          1.35100       -0.34500        0.00300
C          0.09200       -0.97500       -0.02800
N         -1.10200       -0.27000       -0.03500
O         -2.21200       -0.87600       -0.05900
C         -1.04800        1.10800       -0.01600
C          0.17100        1.78700        0.01300
C          1.37600        1.06400        0.02600
N          2.63400        1.84500        0.06800
O          3.71100        1.24000        0.08400
O          2.53400        3.08100        0.08600
H          2.28400       -2.29100       -0.02300
H          3.13800       -1.08800        0.93400
H          3.19100       -1.04200       -0.86300
H         -0.06400       -2.04600       -0.04600
H         -2.02000        1.57800       -0.02400
H          0.15500        2.87500        0.02800
