25
1074-51-7.pdb
O          1.05300        0.38500        0.04900
N          2.43300        0.20300        0.14800
C          3.09900        0.98000       -0.65900
C          4.60700        0.82900       -0.66300
C          5.15700        0.12500       -1.90200
C          4.32900       -1.07000       -2.38600
C          3.44700       -0.77900       -3.60500
C          2.23700        0.13500       -3.38000
C          2.58600        1.59500       -3.08200
C          2.47900        1.98700       -1.61000
H          0.71000       -0.29700        0.65600
H          4.89700        0.25800        0.22900
H          5.06100        1.82100       -0.56300
H          6.16400       -0.23100       -1.64900
H          5.31100        0.84500       -2.71200
H          3.73300       -1.50600       -1.57700
H          5.03400       -1.85600       -2.68700
H          3.06500       -1.74200       -3.97000
H          4.06500       -0.37500       -4.41700
H          1.57800       -0.28600       -2.61300
H          1.65400        0.12000       -4.31100
H          1.89100        2.23800       -3.63800
H          3.57600        1.84800       -3.47700
H          1.42800        2.15800       -1.36200
H          2.98400        2.94900       -1.45600
