27
107559-02-4.pdb
C         -3.31400        0.73700       -0.00000
C         -1.85300        0.45400        0.01600
S         -1.27400       -1.16200        0.04900
C          0.34900       -0.58100        0.04400
C          1.55600       -1.30900        0.05900
C          2.78900       -0.62400        0.02400
C          2.75400        0.78100       -0.00800
C          1.55000        1.50100       -0.00100
C          0.32700        0.81100        0.01700
N         -0.93000        1.38800        0.00600
C          4.08200       -1.35500       -0.00400
C          4.21400       -2.59800       -0.65100
C          5.44200       -3.26800       -0.70900
C          6.57300       -2.70400       -0.12900
C          6.47300       -1.48200        0.52500
C          5.24100       -0.82300        0.59400
H         -3.92200       -0.17400       -0.01000
H         -3.57000        1.32400       -0.88800
H         -3.58900        1.32000        0.88400
H          1.51800       -2.39400        0.09900
H          3.67700        1.35500       -0.05600
H          1.55500        2.58600       -0.02200
H          3.36100       -3.06100       -1.14300
H          5.51300       -4.22600       -1.21800
H          7.53000       -3.21600       -0.18700
H          7.35300       -1.03400        0.98100
H          5.20200        0.12200        1.13200
