19
1075-49-6.pdb
O          3.14800       -0.39600        1.16500
C          2.38600       -0.14400        0.08000
O          1.18100        0.03100        0.13500
C          3.15900       -0.05000       -1.18300
C          2.71400        0.83400       -2.17200
C          3.41100        0.94300       -3.38100
C          4.55900        0.17400       -3.61600
C          5.30400        0.22500       -4.88200
C          5.42700        1.30800       -5.65900
C          4.97500       -0.73300       -2.63100
C          4.28100       -0.85100       -1.42200
H          4.10800       -0.32600        1.01700
H          1.82000        1.43400       -2.00900
H          3.03200        1.62200       -4.14100
H          5.80200       -0.69500       -5.18200
H          4.97900        2.26500       -5.41100
H          6.00700        1.25900       -6.57600
H          5.84600       -1.36300       -2.80100
H          4.61000       -1.59300       -0.70000
