19
1075-06-5.pdb
O          1.06800        0.03100       -0.43800
C          2.41200        0.25600       -0.81100
O          2.46200        0.39600       -2.21200
C          3.00200        1.48700       -0.09300
O          2.30000        2.18400        0.64100
C          4.44900        1.80800       -0.27500
C          5.29800        1.02500       -1.06300
C          6.65500        1.35000       -1.17400
C          7.16500        2.45800       -0.50000
C          6.32400        3.24800        0.27900
C          4.96900        2.92700        0.39100
H          0.75100        0.89400       -0.10600
H          2.98600       -0.62400       -0.50300
H          2.58900       -0.49900       -2.56700
H          4.94700        0.15700       -1.61000
H          7.31400        0.73900       -1.78700
H          8.22100        2.70600       -0.58300
H          6.72000        4.11500        0.80200
H          4.32300        3.55200        1.00400
