18
1076-22-8.pdb
C          0.96100       -0.02100        0.03800
N          2.41000       -0.04500        0.03800
C          3.09400       -1.25900        0.03900
O          2.54300       -2.36100        0.03800
N          4.47700       -1.20900        0.04000
C          5.26900       -0.08400        0.04000
O          6.49300       -0.12600        0.04200
C          4.50500        1.10800        0.03900
N          4.89000        2.41500        0.04000
C          3.73800        3.15900        0.04000
N          2.66000        2.39800        0.04000
C          3.14300        1.12500        0.03900
H          0.54400       -1.03200        0.03700
H          0.61000        0.50100       -0.85800
H          0.60900        0.50000        0.93300
H          4.95000       -2.09900        0.04100
H          5.84200        2.76100        0.04100
H          3.75400        4.24300        0.04100
