24
1076-97-7.pdb
O          3.10800        1.15700       -0.26400
C          2.38600        0.05500        0.04100
O          1.28600       -0.15600       -0.44600
C          3.07100       -0.84600        1.05500
C          2.61800       -2.30100        0.86700
C          3.21200       -3.22400        1.92800
C          2.89200       -2.72800        3.34000
C          3.37500       -1.28400        3.53000
C          2.77800       -0.35300        2.47500
C          3.53300       -3.65400        4.35600
O          2.72700       -4.67100        4.73800
O          4.67400       -3.53600        4.77700
H          3.96800        1.21700        0.19300
H          4.15200       -0.81200        0.86800
H          2.90800       -2.65400       -0.13000
H          1.52300       -2.36700        0.91300
H          4.29900       -3.28500        1.79000
H          2.82600       -4.24100        1.78800
H          1.80600       -2.73600        3.50100
H          4.47000       -1.23900        3.46900
H          3.10700       -0.92800        4.53200
H          3.17800        0.65900        2.61300
H          1.69300       -0.27700        2.63000
H          1.84400       -4.67000        4.32300
