26
1077-28-7.pdb
O          0.99200        0.02500        0.08100
C          2.33800       -0.12600        0.05100
O          2.86700       -1.21200       -0.12800
C          3.07000        1.18200        0.25200
C          4.58500        0.98200        0.20800
C          5.34900        2.29200        0.41600
C          6.86300        2.04300        0.39300
C          7.71700        3.30800        0.55800
C          9.21700        2.98600        0.48500
C         10.03100        4.21100        0.88500
S          9.37900        4.74500        2.48200
S          7.45000        4.13300        2.16500
H          0.70500        0.94300        0.23200
H          2.77700        1.59300        1.22300
H          2.76300        1.87400       -0.54000
H          4.86900        0.54000       -0.75500
H          4.87800        0.26200        0.98300
H          5.04500        2.73000        1.37300
H          5.08000        3.00700       -0.37100
H          7.12300        1.57600       -0.56800
H          7.12400        1.31100        1.16800
H          7.46100        4.02500       -0.23200
H          9.48700        2.68200       -0.53400
H          9.46800        2.13600        1.13500
H          9.91200        5.02000        0.15800
H         11.09600        3.97500        0.96800
