24
1078-28-0.pdb
C          1.43400        0.23300       -0.92900
O          2.51400        0.06000       -0.01700
C          3.12600       -1.16400       -0.03100
C          2.75000       -2.24700       -0.82200
C          3.46300       -3.44700       -0.75200
C          4.55000       -3.60300        0.09000
N          5.19800       -4.77700        0.10100
C          6.26400       -4.92200        0.92100
C          6.97100       -6.24300        0.88600
C          6.70600       -3.90800        1.76000
C          6.02900       -2.69100        1.74800
C          4.92900       -2.51400        0.90000
C          4.21300       -1.30300        0.83400
H          1.06500        1.25800       -0.82900
H          0.60800       -0.44400       -0.69000
H          1.76800        0.09900       -1.96400
H          1.91100       -2.19900       -1.50700
H          3.16100       -4.28400       -1.37700
H          6.49400       -6.92000        0.16900
H          6.94100       -6.71600        1.87300
H          8.01300       -6.10600        0.58200
H          7.56400       -4.05500        2.40700
H          6.36600       -1.88700        2.39700
H          4.50400       -0.45900        1.45600
