33
1078-71-3.pdb
C          0.93700        4.34900       -2.52400
C          2.45400        4.29700       -2.48700
C          2.96300        3.54300       -1.25800
C          4.49000        3.52900       -1.24000
C          5.05100        2.82300       -0.00400
C          6.58500        2.79900        0.01700
C          7.19300        4.20300        0.08200
C          8.69800        4.19600        0.03800
C          9.36500        4.20300       -1.19600
C         10.75800        4.25000       -1.24300
C         11.49300        4.28100       -0.06000
C         10.84000        4.25500        1.17000
C          9.44700        4.20700        1.22100
H          0.59900        4.88900       -3.41400
H          0.54200        4.86500       -1.64300
H          0.51100        3.34100       -2.55400
H          2.84600        5.32100       -2.48500
H          2.82100        3.81200       -3.39900
H          2.58000        2.51500       -1.26300
H          2.58900        4.02700       -0.34800
H          4.83400        4.56700       -1.27100
H          4.86600        3.03500       -2.14500
H          4.68500        1.78900        0.02100
H          4.68100        3.31300        0.90500
H          6.95100        2.26500       -0.86900
H          6.91600        2.21800        0.88700
H          6.85200        4.71500        0.99000
H          6.84800        4.82000       -0.75500
H          8.80100        4.18700       -2.12500
H         11.26700        4.26900       -2.20300
H         12.57900        4.33000       -0.09800
H         11.41500        4.28000        2.09200
H          8.94700        4.19500        2.18600
