13
108-03-2.pdb
C          0.90800       -0.06300       -0.02200
C          2.42800       -0.04900       -0.02000
C          2.95800        1.36700        0.14800
N          4.45500        1.32100        0.15100
O          5.02500        1.43800       -0.94100
O          5.01100        1.16200        1.24500
H          0.53700       -1.08600       -0.14400
H          0.51100        0.54300       -0.84300
H          0.51100        0.33200        0.91900
H          2.79400       -0.48400       -0.95800
H          2.79300       -0.69200        0.79000
H          2.64600        1.81600        1.09700
H          2.65500        2.02300       -0.67400
