12
108-80-5.pdb
O          0.45100       -2.57000        0.02000
C          0.23900       -1.36200        0.02700
N         -1.02000       -0.85200        0.08500
C         -1.30300        0.47700        0.05000
O         -2.45600        0.89600        0.04900
N         -0.23300        1.31400        0.00800
C          1.06000        0.89400       -0.03000
O          1.99900        1.68200       -0.06500
N          1.24800       -0.45300       -0.02800
H         -1.79200       -1.50000        0.11500
H         -0.40800        2.30800       -0.01100
H          2.19500       -0.79800       -0.06800
