13
108-53-2.pdb
N         -2.20400        1.23000        0.16600
C         -1.15000        0.38200        0.09600
N         -1.34100       -0.89800        0.05100
C         -0.22700       -1.69400       -0.01400
C          1.03200       -1.25000       -0.03700
C          1.23300        0.20300        0.01400
O          2.35300        0.69800        0.01100
N          0.08900        0.94500        0.06700
H         -3.08000        0.76300       -0.04700
H         -2.10700        2.12200       -0.30000
H         -0.42000       -2.76300       -0.04500
H          1.89900       -1.89300       -0.08200
H          0.20400        1.94100        0.14000
