19
108-93-0.pdb
O          2.28400       -0.05100        0.13400
C          0.93700       -0.03600       -0.32400
C          0.20400       -1.27600        0.18500
C         -1.26800       -1.24700       -0.21300
C         -1.95100        0.03000        0.27100
C         -1.21400        1.28200       -0.19800
C          0.26500        1.24200        0.17400
H          2.71100       -0.83900       -0.24500
H          0.95600       -0.03500       -1.42000
H          0.29900       -1.34300        1.27600
H          0.68300       -2.18100       -0.20900
H         -1.78200       -2.12100        0.20100
H         -1.35100       -1.31300       -1.30400
H         -1.99600        0.02500        1.36700
H         -2.98500        0.05500       -0.09000
H         -1.68100        2.17100        0.24000
H         -1.31200        1.37500       -1.28700
H          0.37700        1.31800        1.26400
H          0.78100        2.11800       -0.23800
