17
108-79-2.pdb
C         -2.91400        0.37000       -0.00400
C         -1.45100        0.06100       -0.00100
C         -0.95800       -1.18000        0.00300
C          0.52000       -1.27700       -0.00000
N          1.32400       -0.26300       -0.00200
C          0.78800        0.99900       -0.00200
O          1.47400        2.01700       -0.00200
N         -0.58200        1.11900       -0.00400
C          1.12100       -2.66000       -0.00500
H         -3.52000       -0.54300       -0.00400
H         -3.18300        0.94800       -0.89400
H         -3.18600        0.95000        0.88400
H         -1.56400       -2.07500        0.00700
H         -0.91600        2.07300       -0.00600
H          0.34900       -3.43300        0.00200
H          1.75200       -2.78300        0.88100
H          1.73600       -2.78300       -0.90100
