24
108-58-7.pdb
C          1.28000        0.29600        2.38400
C          2.63900       -0.19200        1.97300
O          3.15200       -1.22500        2.37700
O          3.20300        0.74400        1.10600
C          4.59300        0.66100        0.95000
C          5.12400        0.72800       -0.33600
C          6.51000        0.71200       -0.50300
C          7.35800        0.65700        0.61000
C          6.81000        0.63900        1.88900
O          7.54900        0.65700        3.09500
C          8.93600        0.72700        3.21800
C          9.28300        0.86100        4.67100
O          9.75900        0.73900        2.31400
C          5.42800        0.64200        2.06600
H          0.85000       -0.40400        3.10500
H          0.62300        0.36100        1.51500
H          1.37800        1.27100        2.87200
H          4.47200        0.79600       -1.20300
H          6.93900        0.75400       -1.50200
H          8.43000        0.64000        0.44300
H          8.60700        0.26100        5.28700
H          9.22100        1.91400        4.96200
H         10.29900        0.49400        4.83300
H          5.01300        0.63400        3.06900
