21
108-65-6.pdb
C          1.03800       -0.18400       -0.06800
O          2.45500       -0.07500       -0.04200
C          2.99500       -0.46200        1.22200
C          4.52300       -0.30600        1.21700
C          4.92100        1.13600        0.90100
O          5.06400       -0.63400        2.51600
C          5.21900       -1.96200        2.77700
C          5.72500       -2.18900        4.16700
O          4.93600       -2.86800        2.00400
H          0.68600        0.15200       -1.04700
H          0.59100        0.45400        0.70100
H          0.73200       -1.22400        0.07800
H          2.71900       -1.50000        1.43600
H          2.56300        0.16100        2.01600
H          4.97000       -0.94500        0.44400
H          4.51200        1.82700        1.64700
H          4.56700        1.44300       -0.08900
H          6.01000        1.24900        0.92600
H          6.21700       -1.29200        4.55800
H          6.46300       -2.99500        4.15500
H          4.88800       -2.45600        4.81600
