26
1080-44-0.pdb
C          2.47000        0.03200       -0.00900
C          0.97100        0.04200        0.00300
C          0.24600        1.24100       -0.00900
C         -1.15300        1.22600       -0.01500
C         -1.83400        0.00500        0.00800
C         -1.11800       -1.19300        0.06800
C          0.27600       -1.17300        0.04000
S         -3.61500       -0.02000       -0.02500
O         -4.07700       -0.76600        1.12100
O         -4.06200        1.32500       -0.30700
N         -3.97200       -0.91700       -1.43900
C         -4.15500       -2.38400       -1.20900
C         -4.54800       -3.06000       -2.50700
O         -5.23900       -2.23700       -3.33100
O         -4.28800       -4.22200       -2.78400
H          2.88100        1.04600        0.00400
H          2.83400       -0.47000       -0.91200
H          2.85000       -0.49700        0.87100
H          0.76900        2.19700       -0.00800
H         -1.69400        2.17000       -0.02000
H         -1.61600       -2.14900        0.16100
H          0.82400       -2.11400        0.06200
H         -3.24600       -0.72800       -2.13900
H         -4.95800       -2.56300       -0.49000
H         -3.22400       -2.84200       -0.88000
H         -5.35100       -1.36000       -2.89800
