23
1081-34-1.pdb
S          1.61000       -0.61600        0.47800
C          1.18900        0.95000       -0.05800
C         -0.03600        0.96900       -0.68100
C         -0.62900       -0.32700       -0.72900
C          0.16000       -1.30100       -0.14100
C         -0.11400       -2.71500       -0.02700
S         -1.02200       -3.55100       -1.21700
C         -0.89200       -5.05500       -0.40100
C         -0.15800       -4.91500        0.76100
C          0.28800       -3.57700        0.97500
C         -1.51500       -6.25300       -0.92000
S         -2.01400       -7.52600        0.12400
C         -2.64800       -8.44200       -1.17000
C         -2.46900       -7.81600       -2.38100
C         -1.81200       -6.55700       -2.23700
H          1.86000        1.78100        0.11300
H         -0.48700        1.86700       -1.08700
H         -1.59700       -0.52800       -1.17400
H          0.05800       -5.73200        1.43900
H          0.87000       -3.26900        1.83600
H         -3.11800       -9.39800       -0.98000
H         -2.79600       -8.23500       -3.32400
H         -1.57600       -5.90800       -3.07100
