39
1081-77-2.pdb
C          0.96700       -0.00800       -0.09200
C          2.48500        0.02000       -0.08200
C          3.01200        0.18100        1.33900
C          4.53600        0.21100        1.36400
C          5.03900        0.37500        2.79500
C          6.56000        0.40700        2.82700
C          7.08900        0.57200        4.24900
C          8.61300        0.59300        4.22200
C          9.21200        0.74700        5.61600
C         10.72600        0.79000        5.60000
C         11.38000        2.02300        5.46900
C         12.77000        2.10000        5.50100
C         13.52900        0.94100        5.65900
C         12.89200       -0.29100        5.76900
C         11.49900       -0.37300        5.73400
H          0.59500       -0.12400       -1.11400
H          0.55800        0.92200        0.31800
H          0.58900       -0.84200        0.50700
H          2.83900        0.84700       -0.70900
H          2.87000       -0.90900       -0.52000
H          2.65300       -0.64600        1.96300
H          2.62200        1.10900        1.77500
H          4.90300        1.03800        0.74400
H          4.93400       -0.71700        0.93400
H          4.67400       -0.45300        3.41400
H          4.64100        1.30300        3.22400
H          6.92200        1.23400        2.20300
H          6.95500       -0.51900        2.39300
H          6.73100       -0.25400        4.87800
H          6.70300        1.50200        4.68700
H          8.94500        1.41800        3.57800
H          8.97800       -0.33500        3.76300
H          8.88000       -0.07600        6.25900
H          8.83600        1.66800        6.07900
H         10.80100        2.93900        5.35500
H         13.26200        3.06600        5.41000
H         14.61400        1.00400        5.69400
H         13.48600       -1.19700        5.89000
H         11.02500       -1.34700        5.82500
