27
108354-78-5.pdb
C          1.05200       -0.70100        0.21300
O          2.47800       -0.74800        0.22200
C          3.04900       -0.63700       -1.01800
O          2.39200       -0.54300       -2.04900
C          4.51900       -0.63300       -0.99600
C          5.30500       -0.75700        0.14400
N          4.91600       -0.93200        1.42600
S          6.97900       -0.65400       -0.20200
C          6.69700       -0.47100       -1.86100
C          7.82200       -0.33600       -2.84000
C          7.30100        0.11500       -4.21200
C          6.02000       -0.62900       -4.60600
C          4.88600       -0.37200       -3.60300
C          5.35400       -0.50400       -2.17800
H          0.71300       -0.58100        1.24500
H          0.65400       -1.64100       -0.18100
H          0.68400        0.15200       -0.36700
H          3.94700       -1.14900        1.64800
H          5.59400       -1.19800        2.13300
H          8.32100       -1.30700       -2.94300
H          8.56800        0.38400       -2.48300
H          8.07700       -0.04800       -4.96800
H          7.09600        1.19300       -4.19200
H          6.23000       -1.70500       -4.65400
H          5.69900       -0.32000       -5.60700
H          4.07600       -1.07900       -3.81200
H          4.49300        0.64200       -3.74800
