48
109-29-5.pdb
O          1.14200        0.15100       -0.13600
C          2.35700        0.12800       -0.01000
C          3.19500       -1.13300        0.08100
C          2.45000       -2.21400        0.87600
C          3.37800       -3.10800        1.71700
C          2.75100       -3.47300        3.08000
C          3.64700       -3.04500        4.25300
C          2.85200       -2.64900        5.50700
C          3.62800       -1.66000        6.39900
C          3.54700       -0.25700        5.80100
C          4.32500        0.83200        6.54700
C          3.93300        2.28100        6.14300
C          3.19800        2.37300        4.80500
C          3.17100        3.75300        4.15100
C          2.45500        3.67000        2.78700
C          3.31600        2.98700        1.71700
C          2.50500        2.44200        0.53900
O          3.15600        1.22200        0.13200
H          4.13200       -0.87500        0.58900
H          3.44100       -1.47400       -0.93000
H          1.88600       -2.84400        0.17700
H          1.70400       -1.73700        1.52100
H          4.35100       -2.62500        1.85900
H          3.58400       -4.02900        1.15800
H          2.59300       -4.55700        3.12900
H          1.75800       -3.02200        3.17900
H          4.28500       -2.21300        3.94400
H          4.32600       -3.86800        4.50600
H          2.60800       -3.55200        6.07900
H          1.89500       -2.19000        5.22700
H          4.67100       -1.98000        6.51400
H          3.17500       -1.64800        7.39700
H          2.48300        0.01900        5.76300
H          3.91400       -0.28900        4.77000
H          5.39300        0.69300        6.33900
H          4.20700        0.72000        7.62900
H          4.83800        2.89600        6.13000
H          3.28600        2.69900        6.92400
H          2.16200        2.04200        4.94900
H          3.66600        1.67800        4.10500
H          4.19000        4.13500        4.01800
H          2.63600        4.45400        4.80000
H          2.19800        4.68200        2.44700
H          1.51300        3.13000        2.92000
H          3.90000        2.16800        2.14800
H          4.06200        3.70100        1.34300
H          2.52700        3.14200       -0.30200
H          1.46200        2.26900        0.82400
