56
109-43-3.pdb
C          2.39000       -0.04700       -1.68700
C          3.16500        1.20800       -1.33100
C          3.73900        1.15800        0.08700
C          4.49900        2.44700        0.36600
O          4.99000        2.52300        1.70900
C          6.35000        2.43400        1.79600
O          7.04000        1.67200        1.13200
C          6.85400        3.53000        2.70600
C          8.37800        3.59400        2.71500
C          8.89000        4.76900        3.54600
C         10.42200        4.80000        3.55600
C         10.95200        5.95900        4.39700
C         12.48100        5.97800        4.42100
C         12.99400        7.13600        5.27400
C         14.51800        7.17300        5.32600
C         15.02600        8.37900        6.07300
O         14.33000        9.25400        6.57900
O         16.38400        8.42700        5.96500
C         16.87900        9.72000        5.61400
C         17.63800       10.39400        6.75000
C         18.21300       11.72300        6.26000
C         18.99200       12.45300        7.33800
H          1.99900        0.02900       -2.70700
H          1.54200       -0.19100       -1.01000
H          3.03000       -0.93400       -1.63500
H          2.50000        2.07400       -1.43100
H          3.97700        1.34200       -2.05400
H          4.40700        0.29700        0.20500
H          2.93700        1.03100        0.82400
H          3.82400        3.30300        0.25400
H          5.30700        2.58900       -0.36200
H          6.46600        3.36800        3.71600
H          6.46100        4.47700        2.31900
H          8.75100        3.68900        1.68600
H          8.78200        2.65400        3.11000
H          8.51600        4.68900        4.57300
H          8.50700        5.71100        3.13400
H         10.79400        4.89100        2.52800
H         10.80300        3.85200        3.95600
H         10.57100        5.87300        5.42200
H         10.57900        6.90800        3.99200
H         12.86500        6.07300        3.39900
H         12.85800        5.02800        4.82200
H         12.59900        7.05200        6.29400
H         12.61700        8.08300        4.86600
H         14.90700        7.23600        4.30400
H         14.91000        6.26700        5.80000
H         16.07700       10.37900        5.24300
H         17.55700        9.56000        4.76600
H         18.43800        9.73400        7.10300
H         16.96900       10.55200        7.60400
H         17.39900       12.37100        5.90700
H         18.87300       11.54600        5.40200
H         18.35300       12.67900        8.20100
H         19.38100       13.39900        6.94600
H         19.83500       11.85100        7.68500
