9
109-82-0.pdb
C          2.14900        0.43500       -1.23300
N          2.39100        0.05900       -0.02800
C          3.11000        1.04600        0.79000
C          4.60500        0.83400        0.61100
N          5.84400        0.65800        0.46200
H          1.61900       -0.24500       -1.91900
H          2.44600        1.41400       -1.64600
H          2.84600        0.89500        1.84200
H          2.84400        2.07700        0.52900
