13
109-08-0.pdb
C          2.44500        0.23900       -0.01000
C          0.95700        0.08700       -0.00200
C          0.11500        1.19400        0.00400
N         -1.23500        1.09400        0.00500
C         -1.71700       -0.16900        0.00000
C         -0.88900       -1.27700       -0.00500
N          0.46000       -1.17600       -0.00600
H          2.74500        1.29200       -0.00500
H          2.86200       -0.22900       -0.90700
H          2.87400       -0.24200        0.87400
H          0.50400        2.20700        0.00700
H         -2.79600       -0.26700       -0.00100
H         -1.28900       -2.28400       -0.00800
