16
110-63-4.pdb
O          0.95900        0.08900        0.05800
C          2.37900        0.07100        0.03600
C          2.89800        1.18500        0.93200
C          4.42000        1.21300        0.95500
C          4.94200        2.32600        1.85200
O          6.36400        2.32000        1.84100
H          0.65600       -0.62200       -0.53200
H          2.71600        0.21200       -0.99600
H          2.72000       -0.90600        0.39200
H          2.50400        1.05000        1.94700
H          2.50300        2.14700        0.58300
H          4.81400        1.35100       -0.05900
H          4.81300        0.25000        1.30200
H          4.60000        2.20000        2.88400
H          4.60600        3.30500        1.49500
H          6.65500        1.46400        2.19900
