15
110-59-8.pdb
C          0.95300       -0.08400       -0.02500
C          2.47300       -0.09100       -0.02000
C          3.00800       -1.21900        0.85200
C          4.53000       -1.23200        0.86100
C          5.03700       -2.36600        1.73700
N          5.45700       -3.30700        2.46400
H          0.57900        0.73000       -0.65400
H          0.56100        0.05700        0.98700
H          0.56100       -1.02800       -0.41700
H          2.83800        0.87400        0.35100
H          2.83800       -0.20500       -1.04700
H          2.63200       -2.18300        0.48300
H          2.63200       -1.10700        1.87700
H          4.92200       -0.28500        1.24900
H          4.92200       -1.36800       -0.15300
