35
110-42-9.pdb
C          1.04800        0.00300       -0.06100
C          2.56700        0.00900       -0.04900
C          3.10200        1.05700        0.92300
C          4.62900        1.07200        0.93900
C          5.14900        2.12300        1.91700
C          6.67300        2.14400        1.93600
C          7.20200        3.19400        2.91200
C          8.72700        3.19100        2.91100
C          9.31000        4.22400        3.87000
C         10.82100        4.18200        3.83400
O         11.49000        3.43100        3.13900
O         11.33400        5.10600        4.69400
C         12.76300        5.12100        4.71100
H          0.67700       -0.75200       -0.76000
H          0.65600        0.97700       -0.36900
H          0.65100       -0.22800        0.93300
H          2.93700        0.21500       -1.06000
H          2.93200       -0.98400        0.23500
H          2.72700        0.84900        1.93300
H          2.73000        2.04900        0.63800
H          5.00800        1.28300       -0.06800
H          5.00600        0.08200        1.22500
H          4.77100        1.91000        2.92400
H          4.77100        3.11200        1.63100
H          7.05100        2.35400        0.92800
H          7.05100        1.15400        2.22100
H          6.82900        2.98500        3.92100
H          6.83200        4.18600        2.62600
H          9.09200        3.38800        1.89500
H          9.08900        2.19100        3.18600
H          8.98000        4.01600        4.89400
H          8.98300        5.23000        3.58300
H         13.08800        5.88500        5.42100
H         13.15500        5.37700        3.72100
H         13.15100        4.15100        5.04100
