10
110-61-2.pdb
N          0.96100       -0.06800       -0.06300
C          2.22200       -0.06800       -0.06300
C          3.74200       -0.06800       -0.06300
C          4.24900       -0.42100        1.32600
C          5.76900       -0.42300        1.32600
N          7.03000       -0.42500        1.32500
H          4.09800        0.92300       -0.36900
H          4.09800       -0.79100       -0.80500
H          3.89100       -1.41100        1.63300
H          3.89300        0.30300        2.06900
