14
110-21-4.pdb
N          1.31100       -0.15200       -0.01900
C          2.66200       -0.07400       -0.02800
O          3.24800        0.93500       -0.40100
N          3.29100       -1.20800        0.40400
N          4.68300       -1.22100        0.43000
C          5.33400       -2.35100        0.83400
N          6.68400       -2.24400        0.78500
O          4.77700       -3.37500        1.21200
H          0.79700        0.66900       -0.31000
H          0.80700       -0.95300        0.32200
H          2.81300       -2.04800        0.71400
H          5.15100       -0.39300        0.08000
H          7.15600       -1.40400        0.49100
H          7.23200       -3.03900        1.08600
