13
110-67-8.pdb
C          0.94400        0.07300       -0.07400
O          2.36800        0.04400       -0.06900
C          2.85200       -1.28400        0.12600
C          4.37300       -1.26700        0.12400
C          4.88000       -2.68500        0.33200
N          5.30000       -3.86100        0.50500
H          0.62200        1.10600       -0.22500
H          0.55300       -0.27900        0.88500
H          0.55300       -0.54000       -0.89000
H          2.47900       -1.93000       -0.67800
H          2.47900       -1.67100        1.08200
H          4.75200       -0.61500        0.91800
H          4.75200       -0.87100       -0.82500
