38
110-39-4.pdb
C          0.91500       -0.06000       -0.05800
C          2.43200       -0.06300       -0.04900
C          2.96200        0.06100        1.37600
C          4.48600        0.06100        1.39400
C          5.00700        0.18300        2.82200
C          6.53200        0.18700        2.84400
C          7.05300        0.31300        4.27100
C          8.57800        0.30400        4.30000
O          9.05300        0.40800        5.65000
C          9.02200       -0.76100        6.34000
O          8.65000       -1.83900        5.88300
C          9.49100       -0.58700        7.75800
C          8.62800        0.40700        8.52600
C          7.16900       -0.01900        8.60200
H          0.53900       -0.14900       -1.08200
H          0.52600        0.87000        0.37100
H          0.52100       -0.89800        0.52600
H          2.80300        0.76900       -0.65900
H          2.79900       -0.99000       -0.50500
H          2.58600       -0.77100        1.98400
H          2.58800        0.98700        1.83000
H          4.86400        0.89400        0.78900
H          4.86200       -0.86500        0.94100
H          4.62900       -0.65100        3.42600
H          4.62900        1.10800        3.27500
H          6.90800        1.01900        2.23700
H          6.90700       -0.74000        2.39200
H          6.66400       -0.51000        4.88100
H          6.68200        1.23300        4.73800
H          8.97300        1.15500        3.73400
H          8.97700       -0.60400        3.83400
H         10.53600       -0.26300        7.73800
H          9.46800       -1.56800        8.24900
H          8.68800        1.39300        8.05100
H          9.02200        0.51700        9.54300
H          6.72700       -0.10800        7.60400
H          6.58900        0.72400        9.15600
H          7.06600       -0.98300        9.11000
