16
110-44-1.pdb
C          0.98300       -0.08700       -0.03700
C          2.47700       -0.08200       -0.04000
C          3.21200       -1.09000        0.45500
C          4.65800       -1.07800        0.46100
C          5.37900       -2.09800        0.94800
C          6.85100       -2.17200        1.03300
O          7.52100       -1.36300        0.19400
O          7.40700       -2.94500        1.79700
H          0.60700        0.83200       -0.49800
H          0.59400       -0.13100        0.98500
H          0.59200       -0.93200       -0.61300
H          2.95500        0.79700       -0.46700
H          2.70800       -1.95800        0.87900
H          5.13100       -0.18000        0.07300
H          4.89300       -2.96400        1.39100
H          6.97200       -0.91300       -0.46900
