23
110-93-0.pdb
C          0.98600       -0.04100        0.64200
C          2.48900       -0.07700        0.68800
C          3.12800       -1.38900        1.05800
C          3.20900        1.01500        0.36000
C          4.71500        1.08000        0.32800
C          5.26700        2.45200        0.71000
C          6.78800        2.45300        0.69400
C          7.47500        3.74900        1.02900
O          7.45000        1.45200        0.42300
H          0.54500       -1.00800        0.90700
H          0.63900        0.20800       -0.36600
H          0.59500        0.70000        1.34700
H          2.38500       -2.17400        1.22200
H          3.70900       -1.29000        1.98000
H          3.78800       -1.73400        0.25300
H          2.67900        1.91800        0.05900
H          5.04500        0.83100       -0.68800
H          5.14700        0.33000        1.00000
H          4.93500        2.73700        1.71400
H          4.92100        3.21100       -0.00200
H          6.74400        4.53500        1.22900
H          8.09600        4.05400        0.18300
H          8.09400        3.60800        1.91900
