28
111-80-8.pdb
C          1.24600       -1.02100        1.97900
C          2.60900       -0.72000        1.37700
C          3.11500        0.66800        1.78000
C          4.48800        0.94900        1.16000
C          5.02000        2.32400        1.54400
C          6.39500        2.60500        0.93600
C          6.77500        3.96300        1.36600
C          6.86500        5.08800        1.76100
C          6.84600        6.47100        2.22300
O          7.64800        7.28300        1.79000
O          5.84800        6.72600        3.11600
C          5.76100        8.07700        3.59100
H          0.92800       -2.03300        1.70800
H          0.49100       -0.32100        1.60800
H          1.27300       -0.95300        3.07100
H          2.53500       -0.79200        0.28600
H          3.32600       -1.48300        1.70100
H          3.18000        0.73600        2.87400
H          2.39600        1.43000        1.45600
H          4.41200        0.88000        0.07000
H          5.20100        0.18300        1.48400
H          5.08300        2.41300        2.63800
H          4.32100        3.10400        1.21200
H          6.34300        2.54700       -0.15900
H          7.12600        1.85400        1.26000
H          5.28300        8.06900        4.57800
H          5.13400        8.67500        2.92100
H          6.74400        8.54600        3.70600
