25
111-13-7.pdb
C          0.93800       -0.18300       -0.06200
C          2.46000       -0.16100       -0.07300
C          2.97200        1.24400       -0.38300
C          4.50000        1.32400       -0.36400
C          5.02200        2.72700       -0.69500
C          4.57900        3.78400        0.31800
C          5.10500        5.17100        0.00100
C          4.65400        6.28300        0.91300
O          5.85100        5.40200       -0.94900
H          0.57100       -1.18600        0.17400
H          0.53600        0.10900       -1.03800
H          0.54300        0.51000        0.68900
H          2.83100       -0.87200       -0.81900
H          2.83200       -0.48600        0.90500
H          2.55300        1.93000        0.36000
H          2.60300        1.56300       -1.36500
H          4.90800        0.61800       -1.10000
H          4.87900        1.01300        0.61600
H          4.69100        3.01400       -1.70000
H          6.11800        2.69400       -0.72800
H          4.92900        3.51000        1.31900
H          3.48800        3.86200        0.33500
H          4.03800        5.88600        1.72500
H          4.06100        7.00100        0.34200
H          5.53100        6.76900        1.34800
