27
111-88-6.pdb
C          1.04500       -0.05600       -0.03400
C          2.56500       -0.04500       -0.02200
C          3.10500        0.59500        1.25500
C          4.63300        0.60500        1.27300
C          5.16400        1.24600        2.55600
C          6.69200        1.26000        2.58000
C          7.21900        1.90200        3.86600
C          8.74500        1.91300        3.88200
S          9.36200        2.67400        5.41000
H          0.67500       -0.51700       -0.95500
H          0.64600        0.96300        0.02100
H          0.65100       -0.62500        0.81400
H          2.92900        0.50500       -0.89800
H          2.93300       -1.07400       -0.10800
H          2.73200        0.04500        2.12800
H          2.73000        1.62300        1.33800
H          5.00800        1.15800        0.40300
H          5.01000       -0.42200        1.19100
H          4.78800        0.69300        3.42500
H          4.78600        2.27200        2.63800
H          7.06900        1.81400        1.71100
H          7.07100        0.23400        2.49900
H          6.83700        1.34400        4.73000
H          6.83300        2.92600        3.94000
H          9.13600        2.47800        3.03000
H          9.13800        0.89300        3.82100
H          8.80100        3.87700        5.22100
