20
111-77-3.pdb
C          0.89200       -0.04800        0.02300
O          2.31500       -0.07000        0.04200
C          2.80800       -1.05900        0.94500
C          4.33300       -1.03800        0.92900
O          4.83900       -2.02100        1.83700
C          6.27300       -2.03500        1.82900
C          6.76100       -3.08700        2.82000
O          6.28300       -4.37700        2.44500
H          0.56800        0.72400       -0.68000
H          0.49700        0.19700        1.01600
H          0.49900       -1.01200       -0.31000
H          2.44700       -2.05200        0.65100
H          2.44500       -0.85700        1.96000
H          4.69200       -0.04300        1.21800
H          4.69500       -1.24300       -0.08600
H          6.65300       -1.04900        2.11600
H          6.61700       -2.28600        0.81900
H          6.38800       -2.87600        3.82800
H          7.85300       -3.11800        2.84400
H          5.31800       -4.27300        2.34000
