60
111-62-6.pdb
C          9.49200       -3.83000        5.34400
C          9.00500       -3.04800        4.14100
C          9.52500       -3.67700        2.85700
C          9.04000       -2.89500        1.64800
C          9.56300       -3.53100        0.37000
C          9.07600       -2.75000       -0.83800
C          9.60000       -3.38500       -2.11800
C          9.11100       -2.60200       -3.32600
C          9.62200       -3.21200       -4.58900
C         10.40100       -2.53900       -5.44600
C         10.91900       -3.15100       -6.70500
C         12.44100       -3.15700       -6.71300
C         12.95400       -3.78300       -8.00400
C         14.47500       -3.79000       -8.02000
C         14.99000       -4.41600       -9.31100
C         16.51200       -4.42400       -9.32500
C         17.07900       -5.05500      -10.59800
C         18.59700       -5.03600      -10.54800
O         19.24700       -4.55800       -9.64200
O         19.12500       -5.51200      -11.71700
C         20.43300       -4.99000      -12.02400
C         20.25000       -3.66800      -12.75200
H          9.11800       -3.37800        6.26600
H         10.58600       -3.83800        5.38100
H          9.14300       -4.86600        5.29800
H          9.34600       -2.00900        4.21300
H          7.90800       -3.03200        4.13100
H          9.18400       -4.71700        2.78500
H         10.62200       -3.69600        2.86800
H          9.38300       -1.85500        1.71400
H          7.94300       -2.87500        1.63200
H          9.22200       -4.57100        0.30500
H         10.66000       -3.55000        0.38500
H          9.41600       -1.70900       -0.77000
H          7.97900       -2.73300       -0.85200
H          9.25900       -4.42600       -2.17900
H         10.69700       -3.40400       -2.09700
H          9.44600       -1.56000       -3.24500
H          8.01700       -2.59000       -3.35000
H          9.34800       -4.24300       -4.80200
H         10.67900       -1.50900       -5.23100
H         10.54000       -2.58300       -7.56100
H         10.55000       -4.17900       -6.80800
H         12.82100       -3.72200       -5.85200
H         12.82200       -2.13200       -6.62300
H         12.57600       -3.21900       -8.86600
H         12.57600       -4.80800       -8.09600
H         14.85000       -4.35200       -7.15500
H         14.85000       -2.76400       -7.92500
H         14.61100       -3.85000      -10.17000
H         14.61100       -5.44100       -9.39900
H         16.88000       -4.97800       -8.45100
H         16.88100       -3.39500       -9.22100
H         16.74000       -4.47700      -11.46800
H         16.73000       -6.08500      -10.69500
H         20.96000       -5.69900      -12.67300
H         21.04400       -4.84900      -11.12700
H         19.65900       -3.80700      -13.66300
H         21.21300       -3.23000      -13.01700
H         19.70300       -2.95700      -12.12200
