19
111-29-5.pdb
O          2.84500        0.55800        1.34700
C          2.40500       -0.00000        0.11800
C          2.93900        0.82900       -1.04500
C          4.46900        0.84700       -1.07500
C          5.00000        1.68000       -2.23900
C          6.52300        1.69500       -2.25400
O          6.99000        2.48100       -3.34300
H          2.50200       -0.01000        2.05700
H          1.31100       -0.00200        0.10900
H          2.76000       -1.03400        0.05400
H          2.57200        1.85900       -0.95200
H          2.55100        0.42200       -1.98600
H          4.84400       -0.18000       -1.15700
H          4.85500        1.25800       -0.13500
H          4.62800        2.70900       -2.17400
H          4.62700        1.28500       -3.19100
H          6.93100        0.68400       -2.35700
H          6.91800        2.13100       -1.33200
H          6.64200        2.08200       -4.16000
