32
111-20-6.pdb
O          1.11900       -0.06500       -0.05800
C          2.46300       -0.06400        0.09700
O          2.99100       -0.06100        1.19800
C          3.19600       -0.06700       -1.22500
C          4.70700       -0.06400       -1.01000
C          5.47600       -0.06500       -2.32800
C          6.98300       -0.06500       -2.06500
C          7.76900       -0.06800       -3.37200
C          9.27600       -0.06900       -3.11600
C         10.04700       -0.07200       -4.43400
C         11.55700       -0.07400       -4.20700
C         12.31500       -0.07700       -5.51600
O         13.65700       -0.08000       -5.33500
O         11.81000       -0.07700       -6.62500
H          0.83200       -0.06700       -0.99100
H          2.89800        0.82400       -1.78900
H          2.90000       -0.96100       -1.78400
H          4.99400       -0.94300       -0.41900
H          4.99100        0.81800       -0.42200
H          5.20300        0.81700       -2.91900
H          5.20300       -0.94900       -2.91700
H          7.25300       -0.94600       -1.47000
H          7.25300        0.81900       -1.47400
H          7.49700        0.81400       -3.96500
H          7.49500       -0.95100       -3.96200
H          9.54900       -0.95100       -2.52400
H          9.55100        0.81500       -2.52700
H          9.76300        0.80700       -5.02700
H          9.76100       -0.95300       -5.02400
H         11.84400       -0.96600       -3.64000
H         11.84600        0.82000       -3.64300
H         13.93100       -0.07900       -4.39900
