23
111-90-0.pdb
C          5.02400        2.21700       -1.83300
C          4.44900        1.14300       -0.93100
O          4.83000       -0.12900       -1.44900
C          4.40000       -1.19600       -0.60000
C          4.87600       -2.53200       -1.17600
O          6.30600       -2.60700       -1.11800
C          6.78300       -3.83500       -1.67700
C          8.31000       -3.80100       -1.69700
O          8.81200       -3.62200       -0.37500
H          4.73200        3.21300       -1.48800
H          4.67900        2.08300       -2.86400
H          6.11700        2.15800       -1.85300
H          3.35700        1.21600       -0.91100
H          4.83700        1.26700        0.08600
H          3.30500       -1.19100       -0.55000
H          4.81500       -1.05300        0.40300
H          4.55300       -2.62300       -2.21900
H          4.45400       -3.35300       -0.58700
H          6.40400       -3.95700       -2.69800
H          6.43400       -4.66100       -1.05200
H          8.67500       -2.96800       -2.30600
H          8.71200       -4.73700       -2.09600
H          8.35400       -2.82600       -0.03900
