21
111-17-1.pdb
O          4.81400        0.79700       -2.80800
C          4.46300        0.48100       -1.53900
O          3.70100        1.16400       -0.87700
C          5.13200       -0.78200       -1.06900
C          4.76000       -1.11100        0.36900
S          5.49000       -2.71200        0.87400
C          7.26200       -2.25900        0.89900
C          8.13700       -3.44800        1.26200
C          8.04600       -3.84800        2.71100
O          6.84200       -4.33100        3.07900
O          8.99100       -3.78500        3.48400
H          5.43200        0.16800       -3.22300
H          6.21000       -0.62200       -1.16100
H          4.82500       -1.59600       -1.73600
H          3.67200       -1.20200        0.46900
H          5.08000       -0.32500        1.06300
H          7.41500       -1.42800        1.59600
H          7.54900       -1.93100       -0.10500
H          9.18200       -3.16700        1.08000
H          7.94200       -4.32200        0.62900
H          6.16100       -4.24700        2.37400
