34
111-21-7.pdb
C          2.95900        2.37600       -0.05600
C          4.45100        2.47000        0.02100
O          5.07100        3.50600        0.21600
O          5.00000        1.24100       -0.16300
C          6.43800        1.19500       -0.14700
C          7.03500        1.73500       -1.44300
O          6.62200        0.91100       -2.53900
C          7.10500        1.37600       -3.80300
C          8.62500        1.23200       -3.95900
O          9.09800       -0.08300       -3.65300
C          8.71200       -1.05900       -4.62500
C          9.29000       -2.42000       -4.24100
O         10.72700       -2.40100       -4.20500
C         11.34600       -2.41400       -5.41300
C         12.83400       -2.36400       -5.24300
O         10.78400       -2.46000       -6.49900
H          2.52400        3.36900        0.09100
H          2.58900        1.71300        0.72900
H          2.66200        2.00800       -1.04200
H          6.71100        0.14200       -0.02100
H          6.82300        1.74400        0.72200
H          8.12300        1.71500       -1.35400
H          6.70500        2.76100       -1.63500
H          6.79500        2.41500       -3.96100
H          6.59600        0.77700       -4.56500
H          9.13400        1.91100       -3.26900
H          8.94000        1.51800       -4.96900
H          9.07300       -0.73900       -5.60700
H          7.62200       -1.14500       -4.65200
H          8.93900       -3.20200       -4.92300
H          8.96100       -2.68900       -3.23100
H         13.10400       -2.30000       -4.18500
H         13.22500       -1.47900       -5.75100
H         13.27500       -3.27400       -5.65800
