20
1114-34-7.pdb
O          2.93600       -1.90700       -2.38500
C          2.34200       -2.24900       -1.14200
C          2.98500       -1.46800        0.00900
O          2.45600       -1.88100        1.28300
C          4.52800       -1.50800        0.08100
O          4.92900       -0.69000        1.20200
C          5.12500       -2.90600        0.28000
O          4.74900       -3.80900       -0.75200
C          6.64400       -2.77800        0.33400
O          7.38600       -3.24900       -0.52700
H          2.51200       -2.46300       -3.06300
H          2.40900       -3.33000       -0.98700
H          1.27200       -2.01700       -1.18700
H          2.70200       -0.41400       -0.09800
H          2.29900       -2.84200        1.24700
H          4.94500       -1.04900       -0.82400
H          4.20900       -0.76900        1.86200
H          4.81100       -3.33700        1.23700
H          5.30700       -3.58900       -1.52600
H          7.04800       -2.23300        1.20200
