31
1115-30-6.pdb
C          1.70300       -2.91300        2.38500
C          2.34000       -2.70200        3.74600
O          3.14000       -1.51500        3.67700
C          4.44000       -1.68300        3.31500
O          5.02600       -2.74900        3.20300
C          5.02300       -0.34700        2.94400
C          6.55000       -0.34100        3.03200
C          7.06600        0.99400        2.54100
C          8.44400        1.04500        1.93700
O          6.39400        2.02400        2.61700
C          6.98300       -0.59400        4.45500
O          6.33000       -0.28300        5.44100
O          8.19900       -1.21100        4.48800
C          8.68500       -1.52700        5.80200
C          8.08900       -2.83400        6.29700
H          1.07900       -3.80900        2.37400
H          2.46900       -3.00300        1.60800
H          1.08700       -2.04800        2.11700
H          2.92300       -3.57400        4.06000
H          1.56500       -2.53400        4.50100
H          4.59300        0.42100        3.59800
H          4.70400       -0.13400        1.91700
H          6.94000       -1.13600        2.38400
H          8.93700        0.07200        1.99300
H          9.04600        1.77900        2.47800
H          8.35500        1.33500        0.88600
H          8.48700       -0.70600        6.50000
H          9.77300       -1.62600        5.72700
H          6.99300       -2.79100        6.31300
H          8.44100       -3.06000        7.30800
H          8.36400       -3.65800        5.63400
