24
1115-47-5.pdb
C          3.63400       -1.84600       -2.33200
S          2.63900       -0.34300       -2.25000
C          3.53500        0.57200       -0.94500
C          5.01700        0.86000       -1.18600
C          5.33900        1.75300       -2.39300
N          4.80100        3.11800       -2.20300
C          3.62900        3.56800       -2.74700
C          3.38300        5.03400       -2.50500
O          2.82000        2.88900       -3.36800
C          6.90800        1.78400       -2.50200
O          7.48300        0.67800       -2.70800
O          7.40500        2.94800       -2.36200
H          3.22600       -2.49100       -3.11600
H          3.58100       -2.38300       -1.38200
H          4.67300       -1.62900       -2.58600
H          3.43300       -0.00700       -0.02000
H          2.99600        1.51000       -0.77400
H          5.56000       -0.08900       -1.24900
H          5.40600        1.34800       -0.28100
H          4.94100        1.33800       -3.32500
H          5.56700        3.77900       -2.05900
H          3.97700        5.40800       -1.66700
H          2.32600        5.17800       -2.26200
H          3.63200        5.59500       -3.40900
