21
1116-98-9.pdb
C          1.02900        0.03800       -0.03500
C          2.56000        0.13000       -0.00500
C          3.05000        1.52600        0.40000
C          3.07600       -0.87500        1.04000
O          3.12500       -0.28800       -1.28000
C          2.86000        0.42200       -2.41200
O          2.21100        1.46000       -2.47200
C          3.43700       -0.24600       -3.62500
C          2.41500       -1.24000       -4.15200
N          1.56700       -2.06400       -4.59000
H          0.59500        0.27700        0.94200
H          0.70900       -0.97200       -0.31700
H          0.58800        0.72000       -0.76900
H          2.68800        1.80100        1.39600
H          2.71700        2.30300       -0.29300
H          4.14500        1.56300        0.40700
H          2.69400       -0.64500        2.04100
H          4.17100       -0.87100        1.08200
H          2.77700       -1.89800        0.78500
H          4.37700       -0.74700       -3.37300
H          3.65700        0.51400       -4.38100
