28
1117-86-8.pdb
C          0.96400       -0.12300        0.08700
C          2.48400       -0.11400        0.07600
C          3.02300        0.06700       -1.34200
C          4.54800        0.08000       -1.36100
C          5.07500        0.26400       -2.78600
C          6.60400        0.27600       -2.81600
C          7.15400        0.45600       -4.23300
O          6.69100        1.69600       -4.77500
C          8.69100        0.41300       -4.23600
O          9.22200        0.58200       -5.54900
H          0.59100       -0.25500        1.10800
H          0.57300       -0.94100       -0.52700
H          0.56300        0.81800       -0.30200
H          2.85400       -1.05400        0.50000
H          2.84400        0.69800        0.71900
H          2.64200        1.00600       -1.76300
H          2.65400       -0.74600       -1.98100
H          4.93400       -0.85800       -0.94400
H          4.92000        0.89400       -0.72600
H          4.68400        1.20200       -3.19700
H          4.70300       -0.54800       -3.42300
H          6.98600       -0.66100       -2.39100
H          6.96000        1.09600       -2.17800
H          6.76800       -0.33100       -4.89100
H          7.13700        2.41500       -4.30000
H          9.05100       -0.54300       -3.84400
H          9.10100        1.21900       -3.61900
H          8.64100        0.10300       -6.16900
