16
1118-68-9.pdb
C          1.12900       -0.07800       -0.18100
N          2.57900        0.02800        0.04600
C          2.82600        1.20200        0.90500
C          3.04000       -1.22300        0.72200
C          4.56400       -1.29100        0.76400
O          5.13700       -0.58000       -0.24100
O          5.20700       -1.94900        1.56900
H          0.75200        0.81600       -0.69000
H          0.57300       -0.20100        0.75700
H          0.89900       -0.93100       -0.83100
H          2.45000        2.11100        0.42000
H          3.89800        1.36100        1.06300
H          2.34400        1.10900        1.88400
H          2.72300       -2.09400        0.13700
H          2.63800       -1.30300        1.73700
H          4.40600       -0.12600       -0.72300
