12
1118-61-2.pdb
C          0.97600       -0.02700        0.04300
C          2.49000        0.01600        0.07300
N          3.14800       -0.96900       -0.61500
C          3.13500        0.98300        0.74900
C          2.37500        2.06200        1.50300
N          1.74500        2.95700        2.12800
H          0.60400       -0.87000       -0.54600
H          0.57200        0.88800       -0.40600
H          0.57200       -0.13400        1.05600
H          2.62400       -1.68200       -1.11300
H          4.16000       -1.00400       -0.63900
H          4.21500        1.04700        0.79300
