16
1118-66-7.pdb
C          1.09800       -0.01200       -0.05300
C          2.60300        0.15000        0.06100
N          3.03400        1.28000        0.72100
C          3.35300       -0.80700       -0.51000
C          4.82100       -1.02700       -0.59400
C          5.80200       -0.29700        0.28000
O          5.22800       -1.86000       -1.41100
H          0.56000        0.85400        0.34600
H          0.76500       -0.89400        0.50400
H          0.80200       -0.12300       -1.10200
H          2.33600        2.02000        0.78800
H          3.92900        1.64700        0.40900
H          2.83300       -1.61400       -1.02700
H          5.33200        0.28800        1.06500
H          6.41900        0.35500       -0.34500
H          6.44000       -1.03700        0.77400
