25
1119-33-1.pdb
C          3.85000        2.19300        1.64700
C          3.11800        1.06000        0.94800
O          3.36700       -0.13800        1.69700
C          4.47800       -0.82600        1.32800
O          5.08900       -0.68100        0.27600
C          4.93000       -1.71200        2.46100
C          6.45900       -1.76400        2.54600
C          7.14200       -0.39500        2.69800
N          6.79000        0.29000        3.97500
C          8.67700       -0.53100        2.64000
O          9.27400        0.41600        3.41300
O          9.30200       -1.34700        1.98100
H          3.69500        3.14400        1.13700
H          4.92400        1.99000        1.69700
H          3.50300        2.28300        2.68300
H          3.42800        0.97000       -0.09900
H          2.04000        1.24400        0.95600
H          4.51800       -2.71300        2.30100
H          4.52500       -1.33000        3.40500
H          6.84000       -2.25100        1.63800
H          6.74600       -2.41800        3.37900
H          6.87700        0.27700        1.87600
H          6.91600       -0.37700        4.74400
H          5.79000        0.50200        3.97500
H          8.54000        0.91400        3.85000
