20
1119-44-4.pdb
C          0.88600        0.04600        0.04300
C          2.40500        0.03600        0.02200
C          2.93900       -0.76300       -1.16600
C          4.44000       -0.77500       -1.16300
C          5.18800       -0.28900       -2.16500
C          6.67400       -0.26400       -2.20900
C          7.50000       -0.81300       -1.07400
O          7.21700        0.22100       -3.20100
H          0.52400        0.62500        0.89800
H          0.48800       -0.97000        0.12700
H          0.48500        0.49900       -0.86900
H          2.77200       -0.39200        0.96300
H          2.77100        1.06900       -0.02500
H          2.55500       -0.33900       -2.10200
H          2.58100       -1.79800       -1.11100
H          4.88700       -1.21100       -0.27700
H          4.72200        0.14400       -3.04600
H          6.90900       -1.21400       -0.25000
H          8.12700       -0.01300       -0.67200
H          8.12900       -1.62300       -1.45400
