29
112-36-7.pdb
C          0.89600        0.02000        0.00500
C          2.41100       -0.01100       -0.00300
O          2.89700        1.27900        0.35600
C          4.32300        1.30600        0.36600
C          4.80000        2.69900        0.75200
O          6.22700        2.71900        0.75700
C          6.72300        4.00800        1.11400
C          8.24300        3.97800        1.10600
O          8.74600        5.26500        1.46200
C         10.17200        5.27600        1.46600
C         10.64600        6.66200        1.85000
H          0.48800       -0.95700       -0.26700
H          0.52100        0.76900       -0.69900
H          0.52100        0.29700        0.99600
H          2.77100       -0.27600       -1.00400
H          2.77100       -0.75500        0.71700
H          4.71100        1.04300       -0.62500
H          4.70900        0.57100        1.08200
H          4.41600        2.96300        1.74400
H          4.41600        3.43600        0.03600
H          6.36000        4.28700        2.11100
H          6.36000        4.76000        0.40300
H          8.60300        3.69600        0.10900
H          8.60300        3.22400        1.81600
H         10.54400        5.01800        0.46800
H         10.54400        4.54200        2.18800
H         10.26900        7.40800        1.14300
H         11.73800        6.70700        1.86200
H         10.26900        6.93900        2.83900
