37
112-54-9.pdb
C          0.92700        0.06300       -0.02700
C          2.44400        0.07000       -0.03400
C          2.97100        1.09500       -1.03000
C          4.49300        1.10500       -1.03600
C          5.01000        2.12900       -2.03500
C          6.53100        2.13700       -2.04300
C          7.04700        3.16300       -3.03900
C          8.56700        3.17100       -3.04700
C          9.08400        4.19700       -4.04500
C         10.60500        4.21000       -4.05700
C         11.12500        5.23500       -5.05300
C         12.62900        5.25100       -5.06900
O         13.32600        4.52300       -4.36100
H          0.55400       -0.67400        0.68900
H          0.53600       -0.19000       -1.01800
H          0.53600        1.04600        0.25500
H          2.81400       -0.92800       -0.29500
H          2.81400        0.30300        0.97200
H          2.59800        2.09300       -0.77000
H          2.60000        0.86300       -2.03600
H          4.87200        0.10900       -1.29800
H          4.86900        1.34200       -0.03400
H          4.63500        3.12700       -1.77400
H          4.63500        1.89400       -3.03900
H          6.90700        1.14100       -2.30600
H          6.90700        2.37200       -1.03900
H          6.66900        4.15900       -2.77700
H          6.66900        2.92900       -4.04300
H          8.94200        2.17400       -3.31000
H          8.94200        3.40500       -2.04300
H          8.70700        5.19200       -3.78100
H          8.70700        3.96200       -5.04700
H         10.98500        3.21300       -4.31500
H         10.98500        4.43900       -3.05300
H         10.77500        6.23900       -4.78700
H         10.77500        4.99700       -6.06400
H         13.10000        5.96400       -5.76100
