39
112-53-8.pdb
C          0.97100        0.04700       -0.09500
C          2.49100        0.05500       -0.08500
C          3.02300        0.93200        1.04100
C          4.54700        0.94100        1.05000
C          5.06900        1.81900        2.18100
C          6.59100        1.82900        2.19200
C          7.11000        2.70800        3.32200
C          8.63200        2.71800        3.33300
C          9.15300        3.59800        4.46300
C         10.67700        3.60500        4.47300
C         11.20900        4.48300        5.59900
C         12.72800        4.49200        5.61200
O         13.19400        5.31700        6.67000
H          0.60100       -0.58500       -0.90500
H          0.57900        1.05800       -0.24000
H          0.58000       -0.34200        0.85000
H          2.86000        0.42100       -1.05100
H          2.85900       -0.97100        0.03400
H          2.65200        0.56300        2.00600
H          2.65000        1.95600        0.92200
H          4.92300        1.31300        0.09000
H          4.92300       -0.08300        1.17100
H          4.69400        1.44900        3.14300
H          4.69300        2.84300        2.05900
H          6.96700        2.19900        1.23100
H          6.96800        0.80600        2.31500
H          6.73300        2.33700        4.28300
H          6.73300        3.73100        3.19800
H          9.00700        3.08700        2.37100
H          9.00800        1.69400        3.45600
H          8.77600        3.22700        5.42400
H          8.77600        4.62000        4.33900
H         11.04900        3.97300        3.51000
H         11.04900        2.58100        4.59400
H         10.83500        4.12800        6.56800
H         10.83300        5.50800        5.49000
H         13.13000        4.87400        4.66800
H         13.12100        3.48200        5.76800
H         12.84100        6.21000        6.51900
