29
112-34-5.pdb
C          1.02800        0.04800        0.06400
C          2.54700        0.04800        0.05800
C          3.11100       -0.99700       -0.90000
C          4.63500       -0.98000       -0.88800
O          5.11600       -1.97000       -1.79700
C          6.54400       -1.99400       -1.82200
C          7.02100       -3.06200       -2.79800
O          8.45100       -3.07600       -2.82800
C          8.93400       -4.08400       -3.72600
C         10.45800       -4.04000       -3.73100
O         10.96100       -4.30500       -2.42300
H          0.65300        0.80700        0.75900
H          0.63700       -0.92400        0.38000
H          0.63100        0.27300       -0.93100
H          2.91000       -0.14600        1.07400
H          2.90500        1.04400       -0.22800
H          2.75000       -0.81600       -1.92000
H          2.75400       -1.99800       -0.62600
H          5.00600       -1.20200        0.11900
H          5.00300        0.00400       -1.19600
H          6.93200       -2.21100       -0.81900
H          6.93000       -1.01400       -2.12500
H          6.62800       -2.85000       -3.80000
H          6.64100       -4.04200       -2.49000
H          8.55200       -3.89500       -4.73500
H          8.58900       -5.06300       -3.37500
H         10.82000       -3.05100       -4.03000
H         10.86500       -4.79000       -4.41500
H         10.47700       -3.69400       -1.83400
