34
112-44-7.pdb
C          0.95600        0.12000        0.00600
C          2.47500        0.11000        0.01500
C          3.00800       -0.96300        0.95900
C          4.53400       -0.97700        0.96900
C          5.05800       -2.05400        1.91400
C          6.58200       -2.06700        1.92600
C          7.10800       -3.14400        2.86800
C          8.63400       -3.15600        2.87500
C          9.15700       -4.23400        3.81700
C         10.67900       -4.26100        3.83800
C         11.20700       -5.32500        4.76800
O         10.50900       -6.08100        5.43300
H          0.58600        0.89300       -0.67400
H          0.56200        0.32600        1.00600
H          0.56100       -0.84600       -0.32600
H          2.84300        1.09500        0.32400
H          2.84300       -0.07100       -1.00200
H          2.63400       -1.94700        0.65000
H          2.63600       -0.78000        1.97500
H          4.91200        0.00400        1.28100
H          4.90900       -1.16100       -0.04500
H          4.68200       -3.03600        1.60100
H          4.68100       -1.87200        2.92800
H          6.95800       -1.08600        2.23900
H          6.95700       -2.24900        0.91100
H          6.73100       -4.12600        2.55500
H          6.73300       -2.96300        3.88300
H          9.00900       -2.17400        3.18800
H          9.00600       -3.33800        1.85900
H          8.77400       -5.21400        3.50600
H          8.77700       -4.05400        4.83000
H         11.07600       -3.29600        4.17100
H         11.07300       -4.46500        2.83600
H         12.30700       -5.38900        4.82100
