39
112-58-3.pdb
C          0.94000        0.12700       -0.01500
C          2.45900        0.10700       -0.02400
C          2.99100       -1.23700       -0.51700
C          4.51600       -1.24900       -0.51900
C          5.06500       -2.58400       -1.01000
C          6.58500       -2.56300       -1.00200
O          7.07000       -3.82000       -1.46400
C          8.49500       -3.83000       -1.46800
C          8.98000       -5.18300       -1.96400
C         10.50500       -5.22500       -1.98000
C         11.02400       -6.57200       -2.47300
C         12.55000       -6.59400       -2.48100
C         13.07700       -7.93100       -2.97300
H          0.57600        1.09700        0.33900
H          0.54100       -0.64900        0.64400
H          0.54200       -0.03900       -1.02300
H          2.82800        0.30600        0.98900
H          2.82800        0.91400       -0.66800
H          2.61900       -1.43300       -1.53000
H          2.61700       -2.04200        0.12700
H          4.88600       -1.05100        0.49500
H          4.88800       -0.44000       -1.16100
H          4.70500       -2.79900       -2.02400
H          4.70400       -3.40500       -0.37900
H          6.95200       -2.38200        0.01500
H          6.95300       -1.76500       -1.65900
H          8.86300       -3.64900       -0.45100
H          8.86300       -3.03500       -2.12700
H          8.57900       -5.37300       -2.96800
H          8.57900       -5.97700       -1.32100
H         10.88600       -5.03200       -0.96900
H         10.88600       -4.42400       -2.62500
H         10.64500       -6.76400       -3.48400
H         10.64500       -7.37200       -1.82600
H         12.93300       -6.40500       -1.47200
H         12.93300       -5.79700       -3.12900
H         12.73600       -8.74700       -2.32700
H         14.17000       -7.93200       -2.97300
H         12.73600       -8.13500       -3.99300
