35
112-37-8.pdb
C          0.98200        0.08300        0.03800
C          2.49600        0.08500        0.04400
C          3.01400        1.33400        0.73900
C          4.53200        1.34000        0.74500
C          5.04300        2.58900        1.43900
C          6.56100        2.59500        1.44200
C          7.07600        3.84300        2.13700
C          8.59700        3.85000        2.13900
C          9.11800        5.09800        2.83400
C         10.65000        5.12800        2.84800
C         11.15400        6.37200        3.54100
O         12.48700        6.50400        3.61100
O         10.41800        7.22800        4.02100
H          0.60800       -0.81300       -0.46200
H          0.59900        0.96300       -0.49000
H          0.59400        0.10000        1.06200
H          2.87000        0.05000       -0.98600
H          2.86500       -0.80900        0.55900
H          2.64000        1.37000        1.77000
H          2.64200        2.22900        0.22600
H          4.90900        1.30600       -0.28400
H          4.90600        0.44800        1.26200
H          4.66800        2.62400        2.46900
H          4.66900        3.48200        0.92300
H          6.93500        2.56200        0.41100
H          6.93500        1.70100        1.95600
H          6.69900        3.87400        3.16700
H          6.69700        4.73500        1.62300
H          8.96500        3.81600        1.10600
H          8.96800        2.95400        2.65100
H          8.72900        5.12900        3.86000
H          8.72700        5.98700        2.32200
H         11.01700        5.11700        1.81800
H         11.01900        4.24600        3.38000
H         13.02800        5.79600        3.21400
