36
112-42-5.pdb
C          0.90400       -0.07200       -0.04600
C          2.42200       -0.06600       -0.05100
C          2.95700        1.00500       -0.99700
C          4.48000        1.01600       -1.00600
C          5.00200        2.08900       -1.95200
C          6.52500        2.09900       -1.96100
C          7.04700        3.17400       -2.90600
C          8.57100        3.18400       -2.91600
C          9.09200        4.25900       -3.86200
C         10.61500        4.27800       -3.88000
C         11.13500        5.35100       -4.82500
O         12.55400        5.34800       -4.82200
H          0.53100       -0.84400        0.63700
H          0.51100       -0.28100       -1.04500
H          0.51100        0.89500        0.28400
H          2.79000       -1.05200       -0.35800
H          2.79000        0.11700        0.96500
H          2.58200        1.98900       -0.69100
H          2.58400        0.82000       -2.01300
H          4.85700        0.03400       -1.31600
H          4.85500        1.20200        0.00800
H          4.62700        3.07300       -1.64200
H          4.62600        1.90500       -2.96600
H          6.90000        1.11700       -2.27300
H          6.90000        2.28300       -0.94700
H          6.67100        4.15600       -2.59300
H          6.67000        2.99100       -3.92000
H          8.94500        2.20100       -3.22700
H          8.94600        3.36700       -1.90200
H          8.71200        5.23900       -3.54900
H          8.71100        4.07300       -4.87400
H         11.00500        3.30000       -4.18500
H         11.00300        4.45500       -2.86900
H         10.78800        6.34500       -4.52300
H         10.79500        5.16500       -5.84700
H         12.84400        5.51700       -3.91000
