51
1120-25-8.pdb
C          4.10100       -2.57100       -7.67200
C          5.20200       -2.22700       -6.68400
C          5.21900       -0.73000       -6.40100
C          6.31900       -0.37600       -5.41100
C          6.32800        1.12400       -5.13300
C          7.43400        1.44900       -4.14200
C          7.48600        2.90300       -3.79300
C          8.36100        3.40900       -2.91500
C          9.41700        2.61700       -2.18900
C         10.83200        3.04800       -2.56700
C         11.11400        4.49000       -2.15400
C         12.53800        4.89200       -2.49400
C         12.78900        6.34200       -2.08800
C         14.21600        6.73700       -2.43700
C         14.52400        8.17600       -2.04600
C         15.94300        8.52000       -2.40600
O         16.74500        7.76000       -2.93700
O         16.21300        9.81000       -2.05400
C         17.54800       10.21000       -2.36700
H          4.09100       -3.64700       -7.87300
H          4.25200       -2.04600       -8.62100
H          3.12000       -2.28800       -7.27600
H          6.16900       -2.54400       -7.09100
H          5.04300       -2.78400       -5.75300
H          4.25000       -0.41700       -5.99700
H          5.37700       -0.17800       -7.33500
H          7.29400       -0.68300       -5.80900
H          6.16700       -0.92400       -4.47300
H          5.35600        1.43500       -4.72800
H          6.48300        1.67900       -6.06600
H          8.39800        1.14400       -4.56900
H          7.26600        0.87000       -3.22600
H          6.77400        3.57500       -4.26900
H          8.31000        4.47600       -2.70400
H          9.32800        1.54500       -2.39200
H          9.26200        2.73400       -1.11000
H         10.98500        2.92900       -3.64700
H         11.54600        2.38000       -2.07000
H         10.94100        4.60300       -1.07700
H         10.42900        5.17400       -2.66700
H         12.70900        4.77400       -3.57100
H         13.24500        4.23100       -1.97800
H         12.61900        6.46200       -1.01100
H         12.08100        7.00200       -2.60400
H         14.37600        6.60600       -3.51600
H         14.91500        6.05900       -1.93200
H         14.39500        8.30700       -0.96500
H         13.85200        8.86100       -2.57500
H         17.67200       11.24600       -2.05200
H         17.72100       10.15000       -3.44600
H         18.27000        9.59100       -1.82300
