33
1120-06-5.pdb
C          0.90400        0.09400        0.10400
C          2.42400        0.09400        0.12000
C          2.97300       -1.21300        0.68600
C          4.50200       -1.21600        0.70200
C          5.04000       -2.52800        1.27100
C          6.56900       -2.55100        1.29400
C          7.08100       -3.87200        1.87000
C          8.61100       -3.92300        1.91200
C          9.11900       -5.24700        2.49400
C         10.63900       -5.31000        2.52500
O          8.63600       -5.41200        3.82700
H          0.52900        1.03900       -0.30300
H          0.50100       -0.02400        1.11400
H          0.51800       -0.72000       -0.51800
H          2.77800        0.93900        0.72200
H          2.79500        0.24400       -0.90100
H          2.61100       -2.05500        0.08400
H          2.59500       -1.36000        1.70500
H          4.86700       -0.37500        1.30400
H          4.88200       -1.07400       -0.31800
H          4.67100       -3.36700        0.67000
H          4.65600       -2.66900        2.28900
H          6.94100       -1.71500        1.89900
H          6.95700       -2.41500        0.27800
H          6.70500       -4.70600        1.26400
H          6.67600       -4.00200        2.88200
H          8.97200       -3.08700        2.52500
H          9.01100       -3.78600        0.90000
H          8.73600       -6.08500        1.90300
H         11.05700       -4.47200        3.09400
H         11.05800       -5.29000        1.51400
H         10.97200       -6.22600        3.02500
H          8.95700       -4.66100        4.35400
