17
1120-72-5.pdb
C          0.94300        0.10100        0.09800
C          2.45800        0.06800        0.04900
C          3.05800       -1.17800        0.69800
C          4.31000       -0.75500        1.46700
C          4.45100        0.75600        1.35700
C          3.11200        1.17900        0.83100
O          2.66900        2.31400        0.93700
H          0.52000       -0.73700       -0.46400
H          0.56000        1.03000       -0.33700
H          0.57400        0.04600        1.12800
H          2.80600        0.15200       -0.98800
H          3.30300       -1.92900       -0.06300
H          2.35000       -1.65300        1.38700
H          5.20500       -1.26100        1.09000
H          4.20900       -1.04400        2.52100
H          5.21600        1.02700        0.62400
H          4.66700        1.22200        2.32200
