39
112068-01-6.pdb
O          0.94400       -0.44100       -0.07100
C          2.30700        0.01000       -0.21400
C          3.22900       -1.22500        0.21700
C          3.07000       -2.56400       -0.51100
C          1.96400       -3.29100        0.22300
C          2.21700       -2.96000        1.67700
N          2.90800       -1.63500        1.66700
C          2.58600        0.36600       -1.67800
C          3.52100        1.34400       -2.05300
C          3.91800        1.48300       -3.38800
C          3.39000        0.65200       -4.37300
C          2.41700       -0.27900       -4.03800
C          2.00200       -0.40200       -2.71100
C          2.46900        1.16300        0.80800
C          3.70300        1.44200        1.43700
C          3.79400        2.32900        2.51500
C          2.66400        3.00200        2.96200
C          1.45200        2.81200        2.30900
C          1.35800        1.91500        1.24000
H          0.41100        0.05900       -0.71900
H          4.28700       -0.94100        0.19300
H          4.00300       -3.13400       -0.40600
H          2.88200       -2.49600       -1.58100
H          1.99100       -4.37000        0.04200
H          0.97900       -2.93300       -0.09300
H          2.90200       -3.67000        2.14800
H          1.30100       -2.86700        2.26500
H          3.76100       -1.65200        2.23800
H          2.28300       -0.92900        2.08700
H          3.97700        2.01000       -1.32400
H          4.65700        2.23300       -3.66200
H          3.73300        0.73500       -5.40200
H          1.99600       -0.92600       -4.80500
H          1.25000       -1.15900       -2.49300
H          4.62700        0.96400        1.11800
H          4.74800        2.49600        3.01100
H          2.72800        3.68200        3.80900
H          0.57100        3.36500        2.63800
H          0.37700        1.79200        0.78100
