15
1121-78-4.pdb
C          2.91900       -0.00100        0.00400
C          1.42000        0.03100       -0.00100
C          0.72700        1.24100       -0.00400
C         -0.66700        1.22300       -0.00500
C         -1.32200        0.00000       -0.00500
O         -2.68000       -0.09000       -0.00400
C         -0.56300       -1.15700       -0.00500
N          0.79100       -1.16800       -0.00200
H          3.34800        1.00600        0.01100
H          3.28200       -0.52100       -0.88800
H          3.27500       -0.52900        0.89300
H          1.26000        2.18600       -0.00400
H         -1.21400        2.16000       -0.00700
H         -3.05300        0.80700        0.00700
H         -1.03600       -2.13400       -0.00600
