13
1121-31-9.pdb
O          1.06500        0.25700        0.33400
N          2.41800        0.11300       -0.01400
C          3.11200        1.29400       -0.02200
C          4.43600        1.29300       -0.22200
C          5.12600        0.03600       -0.38600
C          4.47200       -1.13100       -0.33600
C          2.98500       -1.14900       -0.12100
S          2.11900       -2.59200       -0.06100
H          0.64000        0.21600       -0.54200
H          2.54300        2.20200        0.13600
H          5.00200        2.21600       -0.23800
H          6.20300        0.06600       -0.53700
H          4.99200       -2.07800       -0.44000
