16
1122-72-1.pdb
C          2.42200       -0.07300       -0.00300
C          0.92200       -0.04800        0.00200
C          0.19500       -1.23700        0.00200
C         -1.19700       -1.18000       -0.00100
C         -1.82700        0.05800       -0.00100
C         -1.02900        1.19200        0.00400
C         -1.64700        2.53600        0.01300
O         -2.86200        2.70900        0.01700
N          0.32800        1.17100        0.00400
H          2.81000       -1.09700       -0.00600
H          2.80800        0.43400        0.88700
H          2.80100        0.43500       -0.89600
H          0.69800       -2.19900        0.00300
H         -1.78400       -2.09400       -0.00300
H         -2.90900        0.13600       -0.00300
H         -0.94200        3.38300        0.01900
