18
1122-71-0.pdb
C          2.42700       -0.07600       -0.02600
C          0.92900       -0.07800       -0.02800
C          0.21500       -1.26700       -0.00600
C         -1.17300       -1.21900        0.02700
C         -1.81100        0.02600        0.03700
C         -1.03200        1.18100        0.00300
C         -1.66900        2.55200        0.03700
O         -1.95500        3.06100       -1.25900
N          0.32300        1.14000       -0.03600
H          2.83300       -1.09200       -0.03100
H          2.79700        0.43400        0.86800
H          2.80100        0.44500       -0.91300
H          0.72700       -2.22700       -0.00800
H         -1.75700       -2.13500        0.05000
H         -2.89200        0.07600        0.08500
H         -0.99300        3.25600        0.53900
H         -2.60100        2.52400        0.60600
H         -1.09100        3.17100       -1.70500
