14
1122-83-4.pdb
O          0.91400       -0.18900       -0.02100
S          2.43600       -0.18400        0.35900
N          3.19500       -1.32400       -0.26300
C          4.57700       -1.62900       -0.03700
C          5.42400       -0.92500        0.83000
C          6.76400       -1.30000        0.97500
C          7.27000       -2.38100        0.25600
C          6.43500       -3.09600       -0.60100
C          5.09700       -2.72000       -0.74400
H          5.06800       -0.08100        1.41100
H          7.41300       -0.74500        1.64900
H          8.31300       -2.66900        0.36500
H          6.82400       -3.94500       -1.15900
H          4.45200       -3.28400       -1.41400
