23
1123-25-7.pdb
C          2.47500       -0.04100       -0.09400
C          1.01500       -0.03600        0.39100
C          0.31200        1.24100       -0.10600
C         -1.17800        1.24900        0.22900
C         -1.88200        0.01000       -0.31400
C         -1.20900       -1.27400        0.16000
C          0.28800       -1.27900       -0.16000
C          1.15000       -0.03000        1.94700
O          1.19800       -1.16900        2.50000
O          1.21400        1.10800        2.49000
H          2.52700       -0.04400       -1.18900
H          3.01700       -0.92500        0.26400
H          3.02100        0.84300        0.25600
H          0.42900        1.32200       -1.19500
H          0.77800        2.14100        0.31400
H         -1.64200        2.14800       -0.19300
H         -1.31800        1.30300        1.31500
H         -1.87700        0.04000       -1.41100
H         -2.93100        0.01400        0.00100
H         -1.68800       -2.13600       -0.31800
H         -1.36300       -1.38700        1.23900
H          0.40600       -1.31600       -1.25200
H          0.73500       -2.20400        0.22400
