16
1123-93-9.pdb
N          0.90900       -0.10000       -0.15000
C          2.29600       -0.03100        0.03100
C          2.94300        1.20400        0.00600
C          4.33900        1.30600        0.04900
C          5.08700        0.11900        0.06800
S          6.79700       -0.09000        0.10600
C          6.58000       -1.78700        0.07300
N          5.34100       -2.21900        0.04200
C          4.47500       -1.13500        0.04000
C          3.06600       -1.20100       -0.00100
H          0.40500        0.71600        0.18500
H          0.49400       -0.96900        0.17200
H          2.35800        2.12000       -0.04800
H          4.82600        2.27600        0.04600
H          7.42500       -2.46300        0.07600
H          2.59500       -2.17700       -0.05600
