21
1123-40-6.pdb
C          0.87200        0.04900        0.02100
C          2.41100        0.04300       -0.00300
C          2.92000        0.41000        1.40200
C          2.93900        1.07200       -1.01600
C          2.70500        0.63700       -2.44300
O          2.30700        1.40700       -3.31400
N          2.96300       -0.67500       -2.72400
C          2.68100       -1.67100       -1.83400
O          2.24400       -2.75600       -2.20800
C          2.93900       -1.35000       -0.38100
H          0.48700        1.03200        0.31600
H          0.48800       -0.68500        0.73900
H          0.44300       -0.19300       -0.95700
H          2.56600        1.40200        1.70400
H          4.01500        0.42300        1.43800
H          2.57200       -0.31200        2.14900
H          4.02000        1.22300       -0.89900
H          2.45500        2.04400       -0.86400
H          2.74700       -0.92300       -3.68100
H          4.02200       -1.41900       -0.22300
H          2.46800       -2.12400        0.23700
