28
1124-63-6.pdb
O          5.70300        2.01300       -0.17600
C          4.71400        0.99400       -0.08000
C          5.38800       -0.35400       -0.28300
C          4.39900       -1.52200       -0.17800
C          5.05800       -2.90400       -0.39100
C          4.00800       -4.03200       -0.30700
C          4.64000       -5.41700       -0.44800
C          5.74900       -5.63500        0.57600
C          6.80400       -4.54300        0.47800
C          6.19000       -3.15200        0.61600
H          5.25600        2.86200       -0.02900
H          3.95200        1.17600       -0.84200
H          4.25500        1.05400        0.91200
H          6.18300       -0.44400        0.46600
H          5.88800       -0.37100       -1.26000
H          3.60500       -1.38400       -0.92500
H          3.91400       -1.49500        0.80600
H          5.48600       -2.92200       -1.40300
H          3.25400       -3.90000       -1.09100
H          3.47900       -3.97700        0.65400
H          5.05100       -5.53000       -1.45900
H          3.87300       -6.19000       -0.32700
H          6.21600       -6.61300        0.41800
H          5.32100       -5.64200        1.58600
H          7.32200       -4.61700       -0.48600
H          7.56000       -4.68700        1.25900
H          6.99500       -2.42300        0.47600
H          5.81200       -3.02300        1.63700
