24
1124-64-7.pdb
C          1.05200        0.16600        0.04100
C          2.57200        0.10500        0.08200
C          3.08000       -1.21600       -0.48900
C          4.60500       -1.27200       -0.53500
N          5.03400       -2.59200       -1.06500
C          4.77500       -2.91100       -2.35600
C          5.10700       -4.16100       -2.86000
C          5.74300       -5.08000       -2.03700
C          6.04100       -4.72600       -0.72700
C          5.67500       -3.47000       -0.25600
H          0.69600        1.11300        0.45500
H          0.61100       -0.64900        0.62400
H          0.68500        0.08700       -0.98800
H          2.91300        0.22100        1.11700
H          2.98000        0.94500       -0.49300
H          2.67200       -1.34400       -1.49900
H          2.69900       -2.05200        0.10900
H          5.03400       -1.13900        0.46500
H          5.03000       -0.50800       -1.19500
H          4.28300       -2.16300       -2.97100
H          4.86600       -4.42100       -3.88900
H          6.00900       -6.06500       -2.41500
H          6.55600       -5.42900       -0.07500
H          5.88900       -3.16200        0.76300
