23
1125-88-8.pdb
C          1.02400        0.12900       -0.26000
O          2.43500        0.08800       -0.13600
C          2.87600       -0.77500        0.92000
O          2.38800       -2.11200        0.76900
C          2.92000       -2.79300       -0.35900
C          4.39200       -0.71600        1.07100
C          5.19000        0.04300        0.19800
C          6.57800        0.07700        0.33800
C          7.19200       -0.64600        1.35700
C          6.41900       -1.40100        2.23800
C          5.02800       -1.43400        2.09900
H          0.76500        1.00200       -0.86500
H          0.53200        0.22100        0.71300
H          0.67100       -0.76400       -0.78300
H          2.45600       -0.38500        1.85800
H          2.26300       -3.63900       -0.58200
H          3.91200       -3.19000       -0.12800
H          2.96600       -2.15200       -1.24500
H          4.73100        0.61400       -0.60800
H          7.17500        0.66900       -0.35000
H          8.27300       -0.62100        1.46400
H          6.90000       -1.96700        3.03200
H          4.43800       -2.03500        2.78900
