35
112522-64-2.pdb
C          1.00000        0.02800       -0.19700
C          2.46200       -0.06500        0.14300
O          2.85600        0.18600        1.27900
N          3.24200       -0.43400       -0.93900
C          4.63900       -0.61900       -0.92200
C          5.38300       -0.75800        0.25200
C          6.77800       -0.87400        0.21600
C          7.44500       -0.85200       -1.01000
C          6.69700       -0.77800       -2.19400
C          5.30300       -0.67200       -2.15300
C          8.92600       -0.94800       -1.12700
O          9.37400       -1.45100       -2.15200
N          9.66800       -0.46100       -0.06500
C         11.08400       -0.38000       -0.00400
C         11.89500       -0.50600       -1.13700
C         13.28000       -0.36400       -1.04400
C         13.86800       -0.07500        0.18000
C         13.07100        0.06800        1.31800
C         11.68500       -0.13300        1.25100
N         10.90500        0.06700        2.41400
H          0.46800        0.50700        0.63200
H          0.59600       -0.97600       -0.34500
H          0.85200        0.63200       -1.09500
H          2.79400       -0.44600       -1.84400
H          4.89800       -0.79700        1.22400
H          7.30800       -1.00400        1.15400
H          7.20300       -0.79300       -3.15800
H          4.76000       -0.59800       -3.09100
H          9.19800       -0.07300        0.73900
H         11.47200       -0.67300       -2.12300
H         13.89000       -0.46000       -1.93900
H         14.94600        0.04900        0.24900
H         13.54900        0.31100        2.26200
H         11.46500        0.00900        3.26200
H         10.13100       -0.58800        2.46200
