19
1125-60-6.pdb
N          0.95000       -0.01400       -0.14500
C          2.35100       -0.05100        0.02100
C          3.04800        1.16500       -0.02600
C          4.44000        1.20000        0.03000
C          5.15800        0.01100        0.08700
C          4.49100       -1.22400        0.06200
C          5.19200       -2.43300        0.06700
N          4.62000       -3.65700        0.01000
C          3.27700       -3.68200       -0.05800
C          2.48000       -2.54700       -0.05700
C          3.07900       -1.27300        0.00900
H          0.53300        0.86500        0.14800
H          0.46900       -0.80600        0.26700
H          2.50500        2.10400       -0.10200
H          4.96100        2.15300        0.01300
H          6.24500        0.05100        0.12400
H          6.27800       -2.45200        0.10800
H          2.83400       -4.67200       -0.12000
H          1.40500       -2.66700       -0.12000
