26
1126-09-6.pdb
C          1.68300        0.33400        1.85000
C          2.20300       -0.13100        0.50200
O          2.97100       -1.32200        0.72100
C          4.28900       -1.12700        1.00300
O          4.87900       -0.06400        0.86000
C          4.88900       -2.34300        1.69900
C          6.39900       -2.40800        1.45300
C          6.70700       -2.88000        0.03400
N          6.09700       -4.18100       -0.24000
C          4.64400       -4.13700       -0.07700
C          4.24300       -3.68500        1.32600
H          1.06500        1.23100        1.75200
H          2.51200        0.54800        2.53400
H          1.08900       -0.45800        2.31900
H          2.78400        0.65100        0.00000
H          1.36700       -0.39000       -0.15600
H          4.71300       -2.16900        2.76800
H          6.84900       -3.10300        2.17400
H          6.87100       -1.43400        1.62600
H          7.79200       -2.96700       -0.09200
H          6.36600       -2.14500       -0.70600
H          6.48500       -4.87300        0.40200
H          4.24000       -5.14100       -0.25800
H          4.20100       -3.48300       -0.83800
H          4.56900       -4.44200        2.05000
H          3.15300       -3.64300        1.40100
