19
1126-00-7.pdb
C          1.35500       -0.22200        0.05900
C          0.46500       -1.29100        0.14200
C         -0.91400       -1.06700        0.08700
C         -1.40700        0.23600       -0.06100
C         -0.50500        1.30900       -0.14000
C          0.87100        1.07700       -0.07700
N         -2.80400        0.48900       -0.15700
C         -3.84100       -0.42000       -0.07100
C         -5.00800        0.27100       -0.30000
C         -4.59900        1.59600       -0.48800
N         -3.27800        1.74400       -0.38600
H          2.42700       -0.40100        0.10000
H          0.84700       -2.30600        0.24400
H         -1.56800       -1.93100        0.14600
H         -0.86000        2.33200       -0.25300
H          1.56300        1.91300       -0.14100
H         -3.67300       -1.46600        0.13200
H         -6.01000       -0.13100       -0.32200
H         -5.20800        2.46600       -0.69600
