20
1126-81-4.pdb
C          0.98800       -0.27700       -0.15200
C          2.45700       -0.28200        0.18400
O          2.83600       -0.05100        1.32600
N          3.25100       -0.56200       -0.91500
C          4.66000       -0.64200       -0.92800
C          5.43500       -0.72200        0.22900
C          6.83200       -0.73100        0.15500
C          7.47300       -0.66200       -1.08100
S          9.24800       -0.61600       -1.18600
C          6.70300       -0.62800       -2.24500
C          5.30400       -0.63000       -2.16900
H          0.43400        0.20700        0.66000
H          0.63600       -1.30500       -0.26200
H          0.80300        0.28400       -1.07200
H          2.79100       -0.60000       -1.81600
H          4.98100       -0.78600        1.21400
H          7.40000       -0.78400        1.08100
H          9.48300       -0.34100        0.10600
H          7.18400       -0.58600       -3.22000
H          4.73700       -0.58900       -3.09500
