21
1129-26-6.pdb
C          1.13500        0.26800       -0.16100
O          2.51400       -0.07200       -0.04800
C          3.12900       -0.43600       -1.21400
C          2.75500       -0.00500       -2.48800
C          3.48100       -0.42100       -3.60900
C          4.58600       -1.25600       -3.44300
C          4.96500       -1.69800       -2.17700
C          4.23900       -1.27600       -1.06300
S          5.51700       -1.76100       -4.86200
N          6.68800       -0.56000       -4.93100
O          6.21700       -2.98800       -4.56000
O          4.70700       -1.59500       -6.04600
H          0.75100        0.44100        0.84900
H          0.56600       -0.55600       -0.60300
H          0.99300        1.19300       -0.72700
H          1.92100        0.67200       -2.64000
H          3.18500       -0.07300       -4.59700
H          5.81700       -2.36000       -2.04700
H          4.53400       -1.60400       -0.06900
H          7.61300       -0.96400       -4.78800
H          6.59300       -0.02500       -5.79400
