21
1129-30-2.pdb
C          3.04500        1.47600       -0.18300
C          2.52300        0.08000        0.06300
O          1.52200       -0.34200       -0.50300
C          3.29300       -0.79300        1.00100
C          2.88300       -2.10000        1.25200
C          3.67000       -2.88900        2.09000
C          4.82500       -2.34900        2.64500
C          5.15300       -1.03000        2.34900
N          4.40800       -0.24000        1.54100
C          6.39000       -0.43600        2.93500
C          6.74200        0.99500        2.61800
O          7.10800       -1.11400        3.67000
H          2.38300        1.98100       -0.89300
H          4.04500        1.43200       -0.62200
H          3.05400        2.05900        0.74200
H          1.98900       -2.51500        0.79300
H          3.39600       -3.92100        2.29400
H          5.46100       -2.94900        3.29000
H          6.01300        1.48700        1.97200
H          7.71300        1.01700        2.11400
H          6.79900        1.55800        3.55300
