21
1131-09-5.pdb
O          2.99600       -0.38900       -1.82800
C          2.46800       -1.16200       -0.85400
O          1.44300       -1.80500       -1.04200
C          3.16100       -1.10900        0.49500
C          4.64800       -0.87900        0.42600
C          5.57100       -1.90000        0.31100
S          7.17200       -1.33800        0.19400
C          6.68100        0.30700        0.28500
C          7.51500        1.43900        0.20400
C          6.94600        2.70900        0.29500
C          5.58000        2.85400        0.48600
C          4.75500        1.72700        0.57000
C          5.29700        0.42000        0.45200
H          3.81100        0.08800       -1.58200
H          2.97600       -2.06900        0.99400
H          2.67400       -0.33100        1.09300
H          5.37900       -2.96500        0.27800
H          8.58700        1.32700        0.06300
H          7.58100        3.59000        0.21800
H          5.14800        3.84900        0.56600
H          3.68700        1.87200        0.72100
