24
1131-18-6.pdb
C          1.10600       -0.17700       -0.14900
C          2.58300       -0.06400       -0.10700
C          3.35200        1.08900        0.14400
C          4.66000        0.67500        0.11100
N          5.78900        1.43000        0.18600
N          4.62300       -0.71300       -0.07300
N          3.35200       -1.13500       -0.33400
C          5.68800       -1.65600       -0.00300
C          6.82700       -1.39800        0.77000
C          7.85500       -2.34100        0.84100
C          7.75300       -3.54100        0.14100
C          6.61600       -3.80800       -0.62300
C          5.57600       -2.87700       -0.68300
H          0.63700        0.81200       -0.15700
H          0.74300       -0.71400        0.73400
H          0.77600       -0.71500       -1.04300
H          2.99500        2.09700        0.30200
H          5.70900        2.43800        0.06600
H          6.65100        1.07600       -0.22500
H          6.91200       -0.49900        1.37500
H          8.72700       -2.14500        1.46000
H          8.55200       -4.27400        0.19900
H          6.53400       -4.74600       -1.16700
H          4.69600       -3.10100       -1.28300
