25
1131-16-4.pdb
C          1.01400       -0.07500       -0.02000
C          2.49000        0.05500        0.01800
C          3.24900        1.22000        0.21900
C          4.56700        0.81600        0.16400
C          5.78500        1.66400        0.14400
N          4.54100       -0.56900        0.03400
N          3.27000       -1.01100       -0.17500
C          5.60700       -1.51200        0.10000
C          6.77400       -1.24900        0.82700
C          7.79500       -2.20200        0.89100
C          7.66000       -3.42000        0.22800
C          6.49500       -3.69700       -0.48500
C          5.46400       -2.75400       -0.53700
H          0.53300        0.90800       -0.03300
H          0.65800       -0.61400        0.86400
H          0.69100       -0.62100       -0.91300
H          2.88700        2.23200        0.33900
H          5.52400        2.70000       -0.10000
H          6.49300        1.32400       -0.61900
H          6.27600        1.68100        1.12000
H          6.89600       -0.34400        1.40900
H          8.68900       -1.99900        1.47500
H          8.45500       -4.15800        0.27900
H          6.38500       -4.64800       -0.99900
H          4.56200       -2.99100       -1.09900
