25
1134-36-7.pdb
N          1.75800       -1.45600        0.14400
C          0.56500       -0.73100       -0.03900
C         -0.67000       -1.39100       -0.02500
C         -1.89300       -0.68900       -0.04100
C         -1.82400        0.71900       -0.04800
C         -0.60100        1.39600       -0.03600
C          0.58100        0.66700       -0.01000
O          1.79500        1.30200        0.01600
C         -3.19900       -1.39600       -0.02300
C         -3.36700       -2.61800        0.65700
C         -4.60200       -3.27600        0.68900
C         -5.70600       -2.72100        0.05100
C         -5.57200       -1.51600       -0.62900
C         -4.33200       -0.86900       -0.67200
H          1.76200       -2.36300       -0.30600
H          2.56100       -0.87800       -0.10200
H         -0.66900       -2.47700       -0.00300
H         -2.73500        1.31400       -0.03500
H         -0.59600        2.48100       -0.03200
H          1.63700        2.25500        0.10800
H         -2.53600       -3.07200        1.19100
H         -4.69800       -4.21900        1.22100
H         -6.66700       -3.22600        0.08500
H         -6.43000       -1.07600       -1.13000
H         -4.26400        0.06100       -1.23300
