33
1135-40-6.pdb
O          1.47100       -0.66100       -1.61500
S          2.93400       -0.65000       -0.93700
O          2.72900       -0.57700        0.49000
O          3.68300       -1.72500       -1.55200
C          3.49900        0.92300       -1.56300
C          4.91400        1.21400       -1.07400
C          5.38500        2.56500       -1.60100
N          6.73800        2.86500       -1.13600
C          7.24900        4.15600       -1.63500
C          8.67600        4.36000       -1.09200
C          9.25200        5.72100       -1.48600
C          8.33800        6.86400       -1.05900
C          6.94000        6.68500       -1.63000
C          6.34900        5.33800       -1.23100
H          1.01300       -1.48400       -1.33500
H          2.79600        1.68700       -1.21500
H          3.46400        0.87600       -2.65600
H          5.59300        0.41600       -1.39600
H          4.92600        1.21900        0.02400
H          4.68300        3.31600       -1.22700
H          5.34900        2.57200       -2.69600
H          7.37700        2.11900       -1.41700
H          7.30600        4.11200       -2.73100
H          9.34100        3.57000       -1.46500
H          8.67500        4.28000        0.00300
H          9.39700        5.75600       -2.57200
H         10.23900        5.85100       -1.02600
H          8.75400        7.82100       -1.39200
H          8.28200        6.90200        0.03700
H          6.97300        6.76300       -2.72400
H          6.28600        7.48900       -1.27200
H          5.36600        5.25800       -1.70700
H          6.18600        5.32500       -0.14600
