24
1136-45-4.pdb
C          2.24200        0.02500       -0.02000
C          0.78200       -0.19400       -0.03700
O          0.01000        0.91700       -0.07200
N         -1.31500        0.55600       -0.07100
C         -1.35200       -0.78600       -0.00900
C         -2.64500       -1.46900        0.10300
C         -3.79200       -0.90300       -0.47900
C         -5.03700       -1.52700       -0.36300
C         -5.15000       -2.73000        0.32700
C         -4.02400       -3.30200        0.91400
C         -2.78200       -2.66800        0.81700
C         -0.02200       -1.31700       -0.04800
C          0.49100       -2.66800       -0.06500
O         -0.27600       -3.58100       -0.71200
O          1.56600       -2.98200        0.42500
H          2.48500        1.09200       -0.02700
H          2.71000       -0.43500       -0.89600
H          2.68400       -0.41400        0.88000
H         -3.72900        0.04300       -1.01600
H         -5.91800       -1.06500       -0.80200
H         -6.11900       -3.21500        0.42100
H         -4.11500       -4.23600        1.46500
H         -1.93700       -3.12400        1.32900
H         -1.05700       -3.20500       -1.15800
