26
1137-73-1.pdb
O          3.21400        3.17900        0.51200
C          2.57200        2.23800        1.24700
O          1.59600        2.49100        1.93600
C          3.14300        0.82600        1.04900
N          4.58700        0.83800        0.67300
C          5.00200       -0.11900       -0.39900
C          5.61600       -1.45100        0.04800
O          5.90100       -1.58800        1.35800
O          5.84900       -2.35700       -0.74500
C          5.54200        1.41200        1.50900
C          5.32400        1.55700        2.89000
C          6.31100        2.07000        3.73500
C          7.53000        2.48000        3.21300
C          7.76400        2.37300        1.84700
C          6.77900        1.83700        1.00700
H          4.01100        2.77400        0.10300
H          2.54400        0.38900        0.24200
H          2.98100        0.22900        1.95200
H          5.70600        0.36300       -1.08400
H          4.12000       -0.38700       -0.99400
H          5.71500       -0.77600        1.86500
H          4.39600        1.23700        3.35800
H          6.12300        2.14400        4.80400
H          8.29600        2.88700        3.86700
H          8.70600        2.70900        1.42800
H          7.00200        1.79300       -0.05500
