26
1138-80-3.pdb
O          4.50500       -2.42900       -1.17600
C          4.46600       -1.09200       -1.40800
O          4.29000       -0.64000       -2.52900
C          4.64700       -0.22000       -0.16500
N          4.67800       -1.04500        1.03100
C          5.80000       -1.41800        1.70600
O          5.83800       -2.51500        2.23800
O          6.75700       -0.46700        1.75700
C          7.69800       -0.64700        2.82500
C          9.11600       -0.50100        2.34000
C          9.57400        0.71800        1.82300
C         10.91100        0.86800        1.45100
C         11.79900       -0.19700        1.59000
C         11.35200       -1.41700        2.09400
C         10.01600       -1.56900        2.46900
H          4.75000       -2.65200       -0.25600
H          3.78000        0.44100       -0.08100
H          5.57100        0.35200       -0.27100
H          3.87100       -1.62700        1.22400
H          7.58100       -1.60300        3.34500
H          7.50500        0.13000        3.57700
H          8.89300        1.56000        1.72100
H         11.26200        1.81900        1.06100
H         12.84200       -0.07600        1.30900
H         12.04500       -2.24700        2.20600
H          9.68700       -2.52500        2.87000
