36
1139-13-5.pdb
C          2.41100       -1.17200       -0.01600
C          2.64200        0.31600        0.16600
O          3.10100        0.90100       -1.06200
C          4.44400        0.81600       -1.29300
O          5.23900        0.27600       -0.53400
C          4.81900        1.50700       -2.60100
C          6.32900        1.30200       -2.86800
C          6.86900        2.17100       -4.00000
C          6.58100        3.64600       -3.75700
C          5.09700        3.90100       -3.53700
C          4.51200        3.01500       -2.43400
C          4.00500        0.89300       -3.73600
O          3.30400        1.52300       -4.51700
O          4.16800       -0.46200       -3.77400
C          3.41700       -1.15800       -4.78000
C          2.01200       -1.43400       -4.27700
H          2.03800       -1.62300        0.90700
H          3.33500       -1.68300       -0.30600
H          1.68500       -1.35000       -0.81600
H          3.34300        0.51800        0.98500
H          1.69800        0.80700        0.42400
H          6.54600        0.25000       -3.09300
H          6.90000        1.53800       -1.96000
H          6.43100        1.85700       -4.95500
H          7.95200        2.02300       -4.08400
H          6.93100        4.23500       -4.61100
H          7.14400        3.99000       -2.88000
H          4.55900        3.73600       -4.47500
H          4.94200        4.95300       -3.27200
H          3.42800        3.18600       -2.38900
H          4.91000        3.35900       -1.46900
H          3.93400       -2.10500       -4.96800
H          3.40600       -0.60300       -5.72500
H          2.04600       -1.97100       -3.32400
H          1.44900       -2.03000       -5.00000
H          1.46800       -0.50100       -4.09600
