21
114-83-0.pdb
C          0.93000        0.09200        0.42900
C          2.42300       -0.05700        0.32900
O          2.97200       -0.80800       -0.47200
N          3.10500        0.71700        1.25500
N          4.49600        0.84200        1.06000
C          5.23000        0.98600        2.26400
C          4.80500        0.48400        3.50000
C          5.59800        0.63600        4.64300
C          6.83400        1.27300        4.55800
C          7.28900        1.73700        3.32600
C          6.49800        1.57900        2.18600
H          0.44900       -0.51000       -0.34600
H          0.64700        1.13800        0.28600
H          0.59100       -0.25400        1.40900
H          2.66200        1.53900        1.65100
H          4.84900        0.02400        0.54200
H          3.85800       -0.04000        3.59100
H          5.25100        0.25200        5.59900
H          7.44700        1.39800        5.44700
H          8.25800        2.22400        3.25000
H          6.86300        1.94600        1.23000
