30
1142-15-0.pdb
C          1.19300        0.43200       -0.06200
O          2.58100        0.13300        0.02500
C          3.14300       -0.47600       -1.06200
C          2.47300       -0.84700       -2.22700
C          3.16300       -1.47900       -3.26700
C          4.53600       -1.73800       -3.16800
C          5.20000       -1.37200       -1.99200
C          4.50900       -0.74300       -0.95100
C          5.27800       -2.45300       -4.21800
C          4.97500       -2.40400       -5.52600
C          5.68500       -3.15100       -6.57800
C          6.29000       -4.39300       -6.34100
C          6.90800       -5.09400       -7.37800
C          6.91600       -4.56900       -8.67000
C          6.30400       -3.34400       -8.92200
C          5.68900       -2.64100       -7.88400
H          0.89100        0.90800        0.87600
H          0.59800       -0.48000       -0.17800
H          0.99400        1.13900       -0.87400
H          1.41100       -0.67100       -2.35900
H          2.60300       -1.78100       -4.14800
H          6.26300       -1.57000       -1.87200
H          5.04000       -0.46400       -0.04400
H          6.12300       -3.04000       -3.86700
H          4.16200       -1.77600       -5.88000
H          6.27500       -4.83900       -5.35100
H          7.37500       -6.05500       -7.17900
H          7.39300       -5.11800       -9.47700
H          6.30200       -2.93600       -9.93000
H          5.21300       -1.68800       -8.10500
