27
1143-38-0.pdb
O          1.11300        0.32400        0.09200
C          2.47400        0.20200        0.07900
C          3.23200        1.37700        0.08000
C          4.62000        1.30700        0.07400
C          5.24900        0.06500        0.06800
C          4.49700       -1.12800        0.06500
C          5.24500       -2.43000        0.05200
C          4.41000       -3.67800        0.06400
C          5.07800       -4.91900        0.06800
C          4.36600       -6.11500        0.07300
C          2.97600       -6.09000        0.07700
C          2.30100       -4.86600        0.07600
O          0.93500       -4.89600        0.08800
C          3.00700       -3.64700        0.06700
C          2.30100       -2.32900        0.05100
O          1.07700       -2.28700        0.01400
C          3.09500       -1.06300        0.06800
H          0.85000        1.25600        0.07200
H          2.75200        2.35100        0.08700
H          5.21100        2.22000        0.07500
H          6.33700        0.02700        0.06400
H          5.90200       -2.45200        0.93100
H          5.87400       -2.45100       -0.84800
H          6.16600       -4.95500        0.06400
H          4.89200       -7.06600        0.07300
H          2.43100       -7.02900        0.08200
H          0.60900       -5.80700        0.07100
