30
1145-80-8.pdb
O          3.58900       -3.15500       -1.64700
C          2.82500       -2.16500       -2.34500
C          2.80600       -0.84000       -1.56000
N          2.15400        0.22100       -2.32500
C          0.87600        0.07000       -2.77000
O          0.14200       -0.84900       -2.43200
O          0.60600        0.97500       -3.73600
C         -0.50500        0.62400       -4.56900
C         -1.60600        1.64600       -4.49200
C         -1.62900        2.73200       -5.37700
C         -2.69400        3.63200       -5.36100
C         -3.73800        3.46200       -4.45300
C         -3.71000        2.40100       -3.54900
C         -2.64500        1.50000       -3.56200
C          2.19900       -0.97700       -0.14700
O          2.40000       -2.18200        0.44400
O          1.67800       -0.05100        0.46500
H          3.68300       -3.91000       -2.26300
H          1.82300       -2.57800       -2.49400
H          3.28400       -2.01200       -3.32800
H          3.84200       -0.51500       -1.39600
H          2.69200        0.97100       -2.73500
H         -0.91300       -0.37500       -4.36900
H         -0.12600        0.57400       -5.59700
H         -0.82500        2.87100       -6.09600
H         -2.71400        4.46100       -6.06300
H         -4.57400        4.15700       -4.44900
H         -4.52200        2.27000       -2.83900
H         -2.63800        0.67100       -2.85600
H          2.90300       -2.80800       -0.13100
