27
1147-56-4.pdb
O         -3.24100        0.10300        0.18200
C         -2.05300       -0.18000        0.09900
C         -1.61400       -1.58900        0.06300
C         -0.31800       -1.91600        0.02600
C          0.73800       -0.90500        0.00800
C          2.08400       -1.29800        0.00700
C          3.10500       -0.34200       -0.02500
C          2.79400        1.01400       -0.06700
C          1.46100        1.41700       -0.06200
C          0.43500        0.46100       -0.01500
C         -0.98100        0.90300        0.03700
N         -1.22400        2.18200        0.03700
N         -2.49900        2.63800        0.11100
C         -2.82300        3.95800        0.08400
S         -1.63100        5.20200       -0.13200
C         -2.85000        6.39300       -0.05100
C         -4.07200        5.78900        0.13900
N         -4.05400        4.40800        0.21300
H         -2.39800       -2.33900        0.07400
H         -0.02400       -2.96200        0.00300
H          2.35700       -2.35000        0.03500
H          4.14600       -0.65600       -0.01800
H          3.58500        1.76000       -0.09700
H          1.22800        2.48100       -0.08900
H         -3.27500        1.97800        0.22900
H         -2.62200        7.44400       -0.14300
H         -5.01500        6.31000        0.23200
