32
1148-11-4.pdb
O          0.99600       -0.11000        0.13400
C          2.25100       -0.08700       -0.02900
O          2.99700       -0.94200       -0.59900
C          3.01200        1.11600        0.59100
C          2.82200        1.08700        2.11100
C          3.18500        2.50200        2.54500
C          2.71700        3.38000        1.39200
N          2.59400        2.49600        0.25900
C          2.19400        2.95800       -0.96800
O          1.89400        4.13100       -1.17700
O          2.17300        1.98600       -1.90000
C          1.67000        2.31300       -3.19600
C          2.71900        2.00700       -4.23900
C          3.59200        0.92000       -4.07600
C          4.55200        0.63300       -5.04400
C          4.64100        1.42000       -6.19400
C          3.76500        2.48600       -6.37900
C          2.80500        2.77700       -5.40500
H          4.07900        1.05300        0.34300
H          3.44300        0.32900        2.59700
H          1.77800        0.88500        2.38200
H          4.27000        2.58700        2.67000
H          2.71500        2.78400        3.49200
H          3.44800        4.16400        1.16500
H          1.74900        3.85000        1.58800
H          1.35200        3.35900       -3.27300
H          0.79200        1.68600       -3.38500
H          3.52700        0.29500       -3.18300
H          5.22900       -0.20400       -4.88900
H          5.39300        1.19000       -6.94300
H          3.83000        3.09500       -7.27500
H          2.12800        3.61300       -5.56000
