34
115-95-7.pdb
C          0.83200        1.60400       -0.65400
C          2.33000        1.70200       -0.73300
C          2.95700        2.97100       -0.22700
C          3.05200        0.67000       -1.21800
C          4.55300        0.54600       -1.16600
C          5.26600        1.03000       -2.43200
C          6.81800        1.01200       -2.35800
C          7.38600        1.86200       -1.20800
O          7.31800       -0.35100       -2.36900
C          7.43800       -1.12000       -1.26400
C          8.05600       -2.44000       -1.62500
O          7.12200       -0.81600       -0.12400
C          7.34800        1.65400       -3.64600
C          8.18000        1.10200       -4.54400
H          0.38000        2.53600       -0.29600
H          0.54100        0.81400        0.05000
H          0.39900        1.38300       -1.63400
H          2.22600        3.78300       -0.16200
H          3.74300        3.31800       -0.90700
H          3.38600        2.82000        0.76800
H          2.52700       -0.21100       -1.58600
H          4.77400       -0.51300       -0.99700
H          4.92200        1.08200       -0.28600
H          4.92700        2.05000       -2.65800
H          4.94000        0.39900       -3.27000
H          7.03500        1.54200       -0.22400
H          7.10500        2.91700       -1.31300
H          8.48000        1.79800       -1.17600
H          8.15900       -2.53900       -2.71000
H          7.41400       -3.25000       -1.27000
H          9.04800       -2.50800       -1.17300
H          7.02300        2.67700       -3.83000
H          8.56200        0.09200       -4.43300
H          8.50700        1.65900       -5.41600
