18
115-69-5.pdb
C          1.03500        0.08200        0.06700
C          2.57000        0.09100        0.03100
N          3.08300       -0.67300        1.20300
C          3.08300       -0.57800       -1.26900
O          2.64200       -1.93500       -1.35200
C          3.08300        1.54700        0.11700
O          4.50800        1.58400        0.14200
H          0.63200       -0.93600        0.03000
H          0.62500        0.63200       -0.78800
H          0.65500        0.55600        0.98000
H          2.62600       -1.58800        1.21300
H          2.75500       -0.22000        2.05900
H          4.17700       -0.57900       -1.32700
H          2.70400       -0.05100       -2.15100
H          3.14000       -2.41200       -0.66500
H          2.72600        2.03700        1.03000
H          2.74200        2.14000       -0.73700
H          4.77100        0.86000        0.74700
