17
115-22-0.pdb
C          1.09300       -0.16700       -0.02800
C          2.59900       -0.11400       -0.05800
O          3.25700       -0.24600        0.98300
C          3.30900        0.02200       -1.41900
C          2.96000       -1.16100       -2.31600
C          2.98100        1.35100       -2.09100
O          4.72700       -0.00500       -1.21900
H          0.75100       -0.20400        1.01100
H          0.74300       -1.06800       -0.53600
H          0.66900        0.72300       -0.49600
H          1.90000       -1.17400       -2.58300
H          3.19500       -2.10600       -1.81300
H          3.54900       -1.14000       -3.23900
H          1.92500        1.42800       -2.36400
H          3.58200        1.49000       -2.99800
H          3.22100        2.19100       -1.42800
H          4.88000       -0.51600       -0.39900
