36
1152-62-1.pdb
C          8.40000        4.24800        4.98900
S          7.82300        3.27600        3.57500
C          6.05700        3.73300        3.61300
C          5.24800        3.06000        2.49500
C          5.26500        1.52400        2.51600
N          4.79700        0.96700        3.79600
C          3.53200        1.14300        4.28800
O          3.33400        1.27700        5.48700
O          2.59200        1.01300        3.33300
C          1.26200        0.73900        3.79400
C          0.28300        1.68300        3.14800
C          0.13900        1.72300        1.75500
C         -0.80800        2.56200        1.16800
C         -1.61700        3.36900        1.96600
C         -1.47700        3.34100        3.35300
C         -0.52800        2.50000        3.94000
C          4.60500        0.91300        1.26400
O          4.10500       -0.33000        1.48200
O          4.62900        1.41300        0.14900
H          9.48500        4.14000        5.08000
H          7.93900        3.88600        5.91200
H          8.16800        5.30600        4.84900
H          5.98200        4.82000        3.50200
H          5.64700        3.46800        4.59300
H          5.62200        3.41700        1.52600
H          4.21100        3.41300        2.56200
H          6.30200        1.17200        2.44100
H          5.47000        1.04100        4.55100
H          1.17100        0.77200        4.88600
H          1.01100       -0.28400        3.49100
H          0.76000        1.09300        1.11800
H         -0.92000        2.58300        0.08600
H         -2.35800        4.01900        1.50800
H         -2.10800        3.96900        3.97600
H         -0.43900        2.48600        5.02500
H          4.15900       -0.54200        2.43700
