32
1152-61-0.pdb
O          7.06200       -4.39600        1.50000
C          6.32200       -3.33100        1.88900
O          6.71200       -2.54700        2.73800
C          4.99800       -3.26500        1.17600
C          4.18000       -2.03300        1.56500
N          4.79100       -0.78200        1.10800
C          4.59500        0.38000        1.80200
O          4.14600        1.34600        1.19900
O          4.79200        0.27000        3.12600
C          4.46700        1.43900        3.89200
C          5.49100        2.54000        3.75100
C          5.13500        3.76500        3.16700
C          6.06500        4.79900        3.05800
C          7.36300        4.62000        3.53100
C          7.73200        3.40100        4.09900
C          6.80300        2.36300        4.20700
C          2.77400       -2.17300        0.93900
O          2.19200       -1.02200        0.52700
O          2.18400       -3.24200        0.84400
H          6.63100       -4.97400        0.84100
H          4.45100       -4.17500        1.45600
H          5.17300       -3.28600        0.09500
H          4.02900       -1.99400        2.65000
H          4.77800       -0.62400        0.10600
H          4.41700        1.14000        4.94400
H          3.45900        1.78600        3.62900
H          4.12900        3.91700        2.78200
H          5.77700        5.74000        2.60300
H          8.08600        5.42500        3.45000
H          8.75100        3.25700        4.45900
H          7.10900        1.41700        4.64700
H          2.68700       -0.19400        0.69300
