26
115314-14-2.pdb
O          1.40900        0.29200        0.57200
N          2.41900       -0.05500       -0.05500
O          2.87500       -1.20600       -0.07500
C          3.12500        0.96900       -0.83800
C          2.62200        2.27900       -0.87200
C          3.29500        3.25900       -1.60300
C          4.46700        2.93900       -2.29200
C          4.96400        1.63000       -2.25000
C          4.29700        0.63300       -1.52700
S          6.53600        1.25800       -3.00100
O          7.03800        2.48200       -3.59000
O          7.30100        0.54100       -2.00200
O          6.19100        0.23000       -4.21800
C          7.32100       -0.26600       -4.92700
C          6.87400       -1.14500       -6.04700
C          6.25100       -2.49500       -5.81100
O          7.63200       -2.35800       -6.17400
H          1.72000        2.55200       -0.32700
H          2.91700        4.28000       -1.62000
H          4.99600        3.72100       -2.83500
H          4.71100       -0.37400       -1.48200
H          7.97100       -0.81500       -4.23600
H          7.89100        0.57300       -5.34200
H          6.63200       -0.60400       -6.95200
H          5.58400       -2.89600       -6.56500
H          6.01900       -2.79300       -4.79600
