35
1155-62-0.pdb
O          5.70500        1.84400       -6.20100
C          6.55800        1.24900       -5.34200
O          7.31000        0.34700       -5.67200
C          6.46700        1.78600       -3.93700
C          5.43200        1.00600       -3.12300
C          5.35600        1.48600       -1.66700
N          5.01900        2.91500       -1.56400
C          3.85700        3.44700       -2.06000
O          3.85400        4.51700       -2.64800
O          2.78100        2.71900       -1.70800
C          1.51800        3.39800       -1.76700
C          0.54100        2.62100       -2.60300
C          0.16200        1.32000       -2.24000
C         -0.79200        0.63000       -2.98800
C         -1.37100        1.22800       -4.10600
C         -0.99600        2.51600       -4.48100
C         -0.04300        3.20900       -3.73400
C          4.50500        0.55500       -0.78000
O          3.92100        1.19800        0.26200
O          4.44700       -0.65900       -0.90800
H          5.14700        2.54400       -5.81300
H          6.24100        2.85600       -3.97900
H          7.46200        1.70300       -3.48300
H          5.70100       -0.05800       -3.14200
H          4.44800        1.07700       -3.60200
H          6.36100        1.42000       -1.22900
H          5.78900        3.54100       -1.77100
H          1.60300        4.43200       -2.12100
H          1.13000        3.45600       -0.74200
H          0.60000        0.84300       -1.36400
H         -1.08800       -0.37500       -2.69500
H         -2.11900        0.69100       -4.68200
H         -1.45100        2.98300       -5.35100
H          0.23100        4.21800       -4.03400
H          4.04900        2.16400        0.17300
