35
1157-39-7.pdb
C          0.37500        3.44500        0.68000
O          1.03200        3.80800        1.90300
C          2.30900        3.35400        1.98100
C          3.22800        4.04900        2.68700
C          4.45900        3.48300        2.77800
C          4.66900        2.10700        2.72800
C          3.85300        1.42900        1.86900
C          2.70200        2.12000        1.42000
C          5.30400        1.64400        4.03900
C          4.82300        0.34700        4.15500
O          4.29600        0.26500        5.54600
C          3.30900        1.19700        5.72400
C          2.02200        0.75800        5.54300
C          1.03100        1.57900        5.98800
O         -0.25100        1.12000        6.14500
C         -0.44900       -0.26800        5.80600
C          1.39400        2.88400        6.41500
C          2.71400        3.40800        6.35000
C          3.67200        2.53000        5.91000
C          5.04800        2.79800        5.32800
O          5.77600        3.73900        5.60900
H         -0.61400        3.89500        0.70900
H          0.27400        2.35700        0.63200
H          0.85100        3.81100       -0.24400
H          3.05700        4.94400        3.28000
H          5.03300        4.04700        3.45200
H          4.03600        0.38900        1.63600
H          2.07500        1.66500        0.66700
H          4.42300       -0.71400        4.29900
H          1.86700       -0.19500        5.04000
H         -1.47600       -0.53400        6.05300
H          0.21400       -0.95300        6.35900
H         -0.30800       -0.40900        4.72800
H          0.59100        3.50700        6.78800
H          2.93600        4.40000        6.73400
