42
1159-15-5.pdb
C         -1.47100       -1.73500       -5.55100
C         -2.03400       -0.82200       -4.49900
C         -3.11000        0.02500       -4.78800
C         -3.57500        0.92900       -3.83000
C         -2.96600        0.99100       -2.57000
C         -1.91000        0.13200       -2.26000
C         -1.45200       -0.77500       -3.22300
S         -3.35600        2.35100       -1.48500
O         -2.10100        2.85000       -0.96900
O         -4.28800        3.20000       -2.19300
N         -4.15300        1.65400       -0.16200
C         -5.63900        1.63900       -0.18800
C         -6.21000        1.01200        1.09700
C         -6.00700       -0.49000        1.27500
C         -4.59300       -0.90000        1.68100
N         -4.60200       -2.34700        1.86800
C         -3.50600       -2.93300        2.17500
N         -2.28600       -2.39800        2.38600
N         -3.49100       -4.27800        2.26600
C         -6.20100        3.06700       -0.21100
O         -7.37200        3.18700       -0.88100
O         -5.69900        3.99900        0.40500
H         -2.02700       -1.65700       -6.49200
H         -1.51700       -2.77600       -5.21700
H         -0.42900       -1.46800       -5.75900
H         -3.56600        0.01800       -5.77700
H         -4.37100        1.62000       -4.10100
H         -1.40700        0.19400       -1.29800
H         -0.60700       -1.42100       -2.98900
H         -3.76300        2.09200        0.67800
H         -5.96700        1.08200       -1.07200
H         -7.29800        1.17700        1.09200
H         -5.83800        1.54300        1.98400
H         -6.31000       -1.02100        0.36600
H         -6.69400       -0.82600        2.06500
H         -4.31500       -0.39000        2.61100
H         -3.87900       -0.63300        0.89800
H         -2.25300       -1.39700        2.52200
H         -1.66600       -2.90100        3.00300
H         -4.43200       -4.65900        2.25400
H         -2.91300       -4.68800        2.98300
H         -7.66200        2.38000       -1.34600
