25
116-63-2.pdb
N          0.99400       -0.06800        0.01200
C          2.40800        0.00100        0.14500
C          3.11500       -1.21000        0.11600
O          2.44500       -2.39800       -0.00800
C          4.49200       -1.26200        0.16000
C          5.21000       -0.06500        0.15700
C          4.56100        1.20100        0.12900
C          5.25200        2.44200        0.11400
C          4.58500        3.66500        0.07100
C          3.20200        3.68900        0.05000
C          2.49100        2.48900        0.06800
C          3.13400        1.22700        0.10800
S          6.98300       -0.18500        0.10600
O          7.30900       -1.76600        0.02700
O          7.41400        0.34000       -1.17300
O          7.49900        0.30700        1.36000
H          0.60400       -0.82100        0.57600
H          0.52800        0.79900        0.25700
H          1.60800       -2.16800       -0.45200
H          4.98100       -2.23000        0.15900
H          6.34100        2.48600        0.13600
H          5.14900        4.59400        0.05600
H          2.67200        4.63700        0.02000
H          1.40900        2.56600        0.05200
H          7.56700       -1.96800       -0.89700
