39
1161-13-3.pdb
O          3.34200        3.43600       -0.30000
C          2.50400        2.46100       -0.71200
O          1.30700        2.65500       -0.86000
C          3.18200        1.09400       -0.93600
C          2.46200        0.08400       -0.01000
C          2.90700       -1.35400       -0.18600
C          3.43200       -2.07600        0.89800
C          3.82400       -3.40700        0.74200
C          3.69500       -4.03400       -0.49600
C          3.17300       -3.33000       -1.57900
C          2.77700       -1.99900       -1.42400
N          4.63600        1.06900       -0.67400
C          5.56900        1.44400       -1.60200
O          6.59500        0.79900       -1.75300
O          5.28400        2.63700       -2.16600
C          6.40400        3.27700       -2.80100
C          6.12500        3.54600       -4.25500
C          5.55200        4.76000       -4.65800
C          5.35400        5.03200       -6.01200
C          5.71600        4.09100       -6.97400
C          6.26800        2.87200       -6.58300
C          6.46800        2.59800       -5.22900
H          4.26600        3.10800       -0.31200
H          3.04300        0.84300       -1.99300
H          2.62000        0.38600        1.03500
H          1.37700        0.11600       -0.16900
H          3.53200       -1.61300        1.87800
H          4.22200       -3.95900        1.58900
H          3.99300       -5.07200       -0.61500
H          3.06400       -3.82000       -2.54300
H          2.35500       -1.47700       -2.28100
H          4.95600        0.18900       -0.28000
H          7.34500        2.72400       -2.70100
H          6.56700        4.22700       -2.27800
H          5.27200        5.50800       -3.92000
H          4.92200        5.98200       -6.31700
H          5.56700        4.30800       -8.02900
H          6.55100        2.13900       -7.33400
H          6.91200        1.64700       -4.93900
