40
1164-16-5.pdb
O          1.34800        0.01700        0.19700
C          2.70200        0.05400        0.12700
O          3.36700        0.72700        0.90400
C          3.31200       -0.86500       -0.94400
C          2.81300       -0.53600       -2.36400
C          3.21700        0.83700       -2.84500
C          4.44400        1.02100       -3.50100
C          4.86300        2.29700       -3.87600
C          4.04600        3.39000       -3.60600
O          4.42100        4.65600       -3.94400
C          2.81900        3.22500       -2.97600
C          2.40200        1.95000       -2.59500
N          4.76500       -0.80600       -0.82000
C          5.60600       -1.68400       -1.42400
O          5.23800       -2.59600       -2.14900
O          6.88200       -1.41000       -1.07400
C          7.84000       -2.41600       -1.41400
C          8.83800       -1.92400       -2.43100
C         10.03000       -1.31000       -2.02200
C         11.00000       -0.94800       -2.95900
C         10.78200       -1.18200       -4.31500
C          9.58500       -1.75900       -4.73700
C          8.61400       -2.12200       -3.80100
H          0.90700       -0.58800       -0.42700
H          3.01900       -1.89200       -0.68900
H          1.72000       -0.62100       -2.41500
H          3.18700       -1.28200       -3.07600
H          5.09100        0.17100       -3.70700
H          5.82500        2.41600       -4.36300
H          5.30800        4.61800       -4.33600
H          2.19500        4.08800       -2.76800
H          1.44700        1.84300       -2.08700
H          5.17200       -0.10400       -0.20900
H          7.38300       -3.35200       -1.75800
H          8.36800       -2.67500       -0.48800
H         10.22100       -1.13100       -0.96600
H         11.93200       -0.49600       -2.62900
H         11.54500       -0.91700       -5.04200
H          9.41500       -1.94100       -5.79500
H          7.69000       -2.58600       -4.14400
