38
117-47-5.pdb
C          5.03200       -1.68600        2.35600
C          4.57500       -0.95000        1.10600
C          4.99300        0.52200        1.16500
C          4.57600        1.35000       -0.07800
C          3.04900        1.34800       -0.22900
C          5.15300        2.79900       -0.06200
C          4.67100        3.58600        1.13900
O          5.23700        3.59000        2.23000
O          3.51700        4.26300        0.89200
C          3.02300        5.04500        1.99300
C          2.29400        4.17200        3.00100
C          6.67600        2.78600       -0.09000
O          7.37000        1.78300       -0.18800
O          7.18000        4.04600        0.03500
C          8.49400        4.10000        0.61400
C          8.33000        4.16600        2.12400
H          4.72900       -2.73500        2.31000
H          4.58400       -1.23900        3.25000
H          6.12100       -1.64600        2.46000
H          3.48800       -1.04800        1.03400
H          5.01000       -1.42700        0.22000
H          6.07900        0.53900        1.28700
H          4.57700        0.97800        2.07000
H          4.98700        0.84900       -0.96600
H          2.55800        1.74600        0.66500
H          2.66900        0.33300       -0.38400
H          2.73200        1.93700       -1.09400
H          4.84500        3.32200       -0.98000
H          2.33200        5.79100        1.58600
H          3.84100        5.59800        2.46900
H          1.49800        3.60000        2.51300
H          1.85800        4.78000        3.79900
H          2.97200        3.44500        3.46000
H          8.99000        5.00600        0.24900
H          9.11900        3.24800        0.32600
H          7.70000        5.02000        2.39900
H          9.29400        4.25700        2.62800
H          7.82600        3.26800        2.49600
