28
117-34-0.pdb
O          2.35400        0.19700        1.22400
C          2.34900       -0.00700       -0.11700
O          1.66500       -0.89000       -0.62100
C          3.27200        0.90600       -0.92600
C          2.85400        2.37600       -0.80400
C          3.35000        3.21500        0.21000
C          3.01800        4.57100        0.23700
C          2.18700        5.10600       -0.74400
C          1.66700        4.28200       -1.73900
C          1.98900        2.92400       -1.76500
C          4.77500        0.68000       -0.72000
C          5.29800       -0.31400        0.12200
C          6.68000       -0.46400        0.27300
C          7.56000        0.36300       -0.42200
C          7.06200        1.33400       -1.28400
C          5.68500        1.48400       -1.43800
H          2.93900        0.92700        1.49700
H          3.10200        0.60700       -1.97200
H          4.03900        2.84200        0.96400
H          3.42800        5.21500        1.01100
H          1.95100        6.16700       -0.73700
H          1.01900        4.70100       -2.50600
H          1.57800        2.30400       -2.56000
H          4.65400       -1.00000        0.66800
H          7.07200       -1.23500        0.93200
H          8.63300        0.24200       -0.30200
H          7.74300        1.97500       -1.83800
H          5.32000        2.25000       -2.12300
