26
117-79-3.pdb
N          1.01900        0.19200        0.14900
C          2.40200        0.16000       -0.04500
C          3.14900        1.34100       -0.02000
C          4.54800        1.30800       -0.05200
C          5.21800        0.08000       -0.06800
C          6.69600        0.04000       -0.07200
O          7.34500        1.07900       -0.08400
C          7.37800       -1.27200       -0.06000
C          8.77800       -1.33300       -0.05500
C          9.42400       -2.57200       -0.04800
C          8.67900       -3.75000       -0.04400
C          7.28600       -3.69300       -0.04600
C          6.63600       -2.45200       -0.05300
C          5.16200       -2.40800       -0.05300
O          4.51200       -3.44700       -0.05700
C          4.48100       -1.10100       -0.05300
C          3.08000       -1.06000       -0.02000
H          0.56400        1.03900       -0.17700
H          0.53300       -0.64800       -0.15100
H          2.64600        2.30400        0.03100
H          5.10800        2.24200       -0.04300
H          9.36900       -0.41900       -0.05600
H         10.51100       -2.61800       -0.04500
H          9.18100       -4.71600       -0.04000
H          6.70800       -4.61600       -0.04200
H          2.51900       -1.99000        0.02900
