18
118-93-4.pdb
C          1.30200       -0.60100        0.61800
C          2.54200        0.01700        0.03100
O          2.98400       -0.38700       -1.04600
C          3.25100        1.12700        0.74700
C          4.40000        1.64900        0.12400
C          5.12600        2.68900        0.71000
C          4.71400        3.22200        1.92600
C          3.58000        2.71500        2.56000
C          2.85300        1.67100        1.97400
O          1.75200        1.20600        2.63600
H          0.92800       -1.36900       -0.06700
H          0.51500        0.14900        0.72800
H          1.53300       -1.08900        1.56800
H          4.73800        1.24600       -0.82900
H          6.01100        3.07900        0.21200
H          5.27700        4.03400        2.38200
H          3.27800        3.14700        3.51000
H          1.63900        1.69700        3.46700
