29
118-58-1.pdb
O          1.98400        0.15500       -1.36400
C          0.80900        0.10100       -0.66600
C          0.08600       -1.09700       -0.65600
C         -1.14600       -1.16700       -0.00400
C         -1.66300       -0.04400        0.63700
C         -0.94000        1.15100        0.63300
C          0.30700        1.23100       -0.00700
C          0.98500        2.55100        0.01800
O          0.35900        3.60200        0.04300
O          2.32700        2.41800        0.08900
C          3.08100        3.63600        0.09300
C          4.02600        3.64700        1.26900
C          4.99400        2.64300        1.41600
C          5.89800        2.68100        2.47900
C          5.84600        3.72200        3.40400
C          4.88200        4.72100        3.27400
C          3.97400        4.68200        2.21300
H          2.18600       -0.72400       -1.72500
H          0.45900       -1.98200       -1.16400
H         -1.71100       -2.09600       -0.00600
H         -2.62800       -0.09200        1.13500
H         -1.35500        2.02700        1.13000
H          2.45100        4.53200        0.10000
H          3.67000        3.67100       -0.83200
H          5.04400        1.82700        0.69800
H          6.64600        1.89900        2.58300
H          6.55500        3.75600        4.22600
H          4.83900        5.53200        3.99600
H          3.22800        5.47000        2.12700
