26
118-55-8.pdb
O          2.15300       -0.06100       -0.64300
C          0.85700        0.01500       -0.21800
C          0.08700       -1.15700       -0.23800
C         -1.24900       -1.13200        0.16500
C         -1.81800        0.05900        0.60100
C         -1.04900        1.22400        0.63200
C          0.29900        1.22400        0.21900
C          0.99300        2.54800        0.24900
O          0.41000        3.55800        0.62300
O          2.29400        2.48400       -0.22300
C          3.09400        3.63900       -0.39500
C          3.00300        4.77600        0.40600
C          3.83200        5.87100        0.14700
C          4.76300        5.81600       -0.89100
C          4.87500        4.66400       -1.66800
C          4.04200        3.57100       -1.41800
H          2.29900       -0.91000       -1.09100
H          0.51300       -2.10200       -0.56400
H         -1.84600       -2.04100        0.13600
H         -2.85900        0.08700        0.91300
H         -1.51600        2.14700        0.97300
H          2.29800        4.83600        1.22900
H          3.74800        6.76700        0.75500
H          5.40100        6.67300       -1.09300
H          5.60600        4.61800       -2.47000
H          4.12800        2.67200       -2.02100
