18
118-72-9.pdb
C          0.98400        0.00100       -0.11000
C          2.49000       -0.08500       -0.04600
C          3.20800        1.12400        0.03200
C          4.59700        1.13100        0.09900
C          5.29400       -0.07300        0.08500
C          4.61700       -1.30500        0.01100
C          5.45300       -2.56100       -0.00500
C          3.20200       -1.30800       -0.04600
S          2.34000       -2.81500       -0.10900
H          0.64800        1.04100       -0.19600
H          0.53700       -0.40900        0.80100
H          0.59700       -0.52300       -0.98900
H          2.67600        2.07000        0.04300
H          5.13500        2.07100        0.16000
H          6.37800       -0.05300        0.13500
H          6.52400       -2.33000        0.02400
H          5.28000       -3.13000       -0.92500
H          5.23800       -3.18300        0.87000
