15
118-71-8.pdb
C          0.90500       -0.11600        0.06500
C          2.38700        0.08300       -0.04500
C          3.01900        1.27500       -0.06100
O          2.39400        2.49900        0.08400
C          4.50400        1.28700       -0.25800
O          5.16500        2.31900       -0.30900
C          5.17300       -0.01900       -0.38900
C          4.42200       -1.11900       -0.32600
O          3.06200       -1.12800       -0.16300
H          0.33500        0.81600        0.07700
H          0.66600       -0.67000        0.97800
H          0.54700       -0.69900       -0.79100
H          1.50300        2.37300        0.43900
H          6.24400       -0.03000       -0.52700
H          4.81500       -2.12400       -0.40200
