34
118156-93-7.pdb
C          3.96800       -1.38600        0.52100
C          2.90000       -0.28500        0.43700
C          2.51800        0.05800       -1.01300
C          1.63800       -0.82000        1.13800
O          3.33600        0.89800        1.16200
C          4.43500        1.57000        0.69900
O          5.07900        1.23400       -0.28300
N          4.76800        2.68800        1.44100
C          5.86900        3.52900        0.98300
C          6.99900        3.52600        2.00600
C          6.47700        3.92600        3.38500
C          5.28700        3.05200        3.80900
C          4.19100        3.03600        2.73500
C          4.75500        3.54800        5.13100
O          3.59800        3.91700        5.31700
H          3.64000       -2.30000        0.01400
H          4.18200       -1.62700        1.56900
H          4.92000       -1.08700        0.07500
H          2.13300       -0.81800       -1.54400
H          3.36100        0.43900       -1.59500
H          1.75400        0.84300       -1.03300
H          1.28800       -1.74900        0.66900
H          0.81800       -0.09500        1.10000
H          1.82800       -1.02600        2.19700
H          5.47500        4.54200        0.84600
H          6.25200        3.19900        0.01300
H          7.79000        4.21400        1.68800
H          7.44200        2.52400        2.06300
H          6.17700        4.98300        3.36500
H          7.28700        3.84800        4.12000
H          5.64300        2.02600        3.96900
H          3.72700        4.02400        2.62900
H          3.39900        2.33500        3.01800
H          5.47800        3.54300        5.96300
