20
118409-57-7.pdb
O          1.69200       -1.35500       -0.01600
C          0.49800       -0.69100       -0.02500
C         -0.70200       -1.39700       -0.05700
C         -1.91600       -0.70200       -0.05000
C         -1.93200        0.69800        0.00600
C         -0.72000        1.40200        0.02000
C          0.48900        0.70300       -0.00000
O          1.67900        1.37500        0.01300
C         -3.20800        1.42600        0.07400
C         -3.90100        1.89400       -0.98400
C         -3.46300        1.71000       -2.32500
N         -3.12100        1.56600       -3.42500
C         -5.11500        2.61000       -0.76800
N         -6.09900        3.19600       -0.57900
H          1.52900       -2.31000        0.00500
H         -0.70900       -2.48300       -0.08600
H         -2.84300       -1.27000       -0.08300
H         -0.72000        2.48700        0.05400
H          1.51600        2.33000       -0.00100
H         -3.57700        1.58500        1.08800
