25
1186-31-8.pdb
C          4.90800        0.82500        2.95400
C          4.46600        0.40700        1.55900
C          4.97300        1.38000        0.48500
C          4.56100        1.00700       -0.96200
C          3.03900        0.91200       -1.13100
O          5.11000       -0.29400       -1.23400
C          5.16400        1.99300       -2.00000
C          4.71300        3.42500       -1.88100
C          4.03300        4.08500       -2.82300
H          4.55300        0.09900        3.69300
H          4.49600        1.80400        3.21800
H          6.00000        0.87700        3.02400
H          3.37300        0.36800        1.55500
H          4.83400       -0.60500        1.35600
H          6.07000        1.39700        0.54000
H          4.62100        2.38800        0.73100
H          2.78500        0.56900       -2.14100
H          2.54600        1.87200       -0.95500
H          2.60100        0.17100       -0.45500
H          4.86500       -0.53900       -2.14300
H          4.94600        1.61800       -3.00900
H          6.26000        1.96800       -1.92700
H          4.98000        3.95200       -0.96400
H          3.75000        3.61800       -3.76100
H          3.74200        5.12300       -2.67200
