42
118909-22-1.pdb
N          0.89900       -0.55500        0.80700
C          2.32200       -0.42300        0.87700
C          2.97800        0.84500        1.19300
C          2.34500        2.24800        1.29600
C          3.26800        3.50200        1.27700
C          4.54800        3.23700        0.51500
C          5.24700        2.04600        1.17000
O          5.82000        2.47000        2.40100
C          4.35900        0.78200        1.31100
N          5.03300       -0.41800        1.24900
C          4.41800       -1.59700        0.93800
C          5.20600       -2.71700        0.62200
C          4.68600       -3.93100        0.15500
C          3.32100       -4.06600        0.03100
C          2.51600       -2.95600        0.31200
C          3.04800       -1.67600        0.72900
O          0.68500        2.04200       -2.81900
C          1.33400        1.50600       -1.76300
O          0.65300        1.23600       -0.80300
C          2.79300        1.36600       -2.16500
C          4.10900        1.02600       -2.15600
C          5.52700        0.57400       -1.96000
O          6.06100       -0.15100       -0.98600
O          6.30800        0.83700       -2.88400
H          0.45200        0.28900        0.43700
H          0.60800       -1.33000        0.21300
H          1.68400        2.30600        2.16400
H          1.72900        2.46200        0.43700
H          3.50500        3.83300        2.29300
H          2.74900        4.35200        0.80800
H          5.19300        4.12700        0.52800
H          4.31700        3.06300       -0.54000
H          6.09400        1.80500        0.52300
H          5.10500        2.58100        3.04500
H          6.29000       -2.61500        0.65200
H          5.34800       -4.74700       -0.12900
H          2.88600       -5.00300       -0.31600
H          1.45200       -3.09900        0.14400
H         -0.25400        1.96900       -2.54700
H          2.68300        1.87700       -3.13000
H          4.38500        1.41500       -3.14500
H          5.70500       -0.20600       -0.08000
