19
119-36-8.pdb
C          1.19400        0.06700        0.01800
O          2.61800        0.13400       -0.03100
C          3.17400        0.83000        0.99100
O          2.56800        1.32800        1.92700
C          4.65300        0.82000        0.90400
C          5.36000        0.77600        2.11600
C          6.75600        0.79000        2.12300
C          7.45500        0.85300        0.91900
C          6.76200        0.90300       -0.29200
C          5.36400        0.89200       -0.30000
O          4.71000        0.99500       -1.49600
H          0.84900       -0.48900       -0.85800
H          0.75800        1.07100       -0.01600
H          0.87100       -0.46600        0.91700
H          4.82100        0.73500        3.06100
H          7.29500        0.76000        3.06700
H          8.54200        0.87500        0.92500
H          7.32800        0.96800       -1.21700
H          5.35300        0.96600       -2.22300
