24
119-79-9.pdb
N         -1.84700       -2.08600       -0.18700
C         -1.36800       -0.77100       -0.00500
C         -2.30400        0.27300       -0.04600
C         -1.90100        1.60400       -0.00300
C         -0.54600        1.91400        0.03800
C          0.42000        0.90100        0.03200
C          1.78000        1.24100        0.05600
C          2.75400        0.24300        0.04800
C          2.39700       -1.10000       -0.00900
C          1.04400       -1.44500       -0.03900
C          0.02200       -0.46400       -0.00800
S          4.46200        0.70400        0.04300
O          5.19400       -0.47900       -0.77600
O          4.59800        1.87600       -0.79500
O          4.92900        0.66900        1.41100
H         -2.80700       -2.20900        0.12100
H         -1.24200       -2.80300        0.19500
H         -3.36700        0.05100       -0.10700
H         -2.64200        2.39800       -0.01600
H         -0.25100        2.96200        0.06000
H          2.08400        2.28700        0.07900
H          3.15300       -1.88200       -0.02200
H          0.79400       -2.50200       -0.08300
H          5.33300       -0.16100       -1.69200
