18
119-33-5.pdb
C          2.97300        0.04800        0.06000
C          1.47300        0.03400        0.01100
C          0.76500       -1.17600       -0.00100
C         -0.63500       -1.19000       -0.01700
C         -1.34400        0.00900       -0.02600
O         -2.70800       -0.01100        0.00900
C         -0.64000        1.21300       -0.03700
C          0.76100        1.24000       -0.01200
N         -1.34700        2.47800       -0.07000
O         -2.06700        2.70800       -1.05200
O         -1.11900        3.27000        0.85600
H          3.38300       -0.96700        0.06200
H          3.31400        0.54900        0.97100
H          3.37600        0.57100       -0.81300
H          1.30200       -2.12400        0.01100
H         -1.14800       -2.14800       -0.01500
H         -3.02200       -0.93100        0.02000
H          1.29200        2.19000       -0.00900
