17
119-39-1.pdb
O         -1.65100        2.00600        0.04800
C         -1.29700        0.83400        0.03500
N         -2.19300       -0.21400        0.05400
N         -1.88000       -1.54300        0.01800
C         -0.62300       -1.85900       -0.01200
C          0.46500       -0.88300       -0.00200
C          1.80000       -1.29000        0.00300
C          2.80500       -0.32000        0.01500
C          2.47300        1.03800        0.01200
C          1.13400        1.43500        0.00800
C          0.12800        0.46400        0.00700
H         -3.18100        0.01800        0.08400
H         -0.35500       -2.92700       -0.04700
H          2.06500       -2.34300        0.00400
H          3.85000       -0.62100        0.02800
H          3.26000        1.79000        0.01900
H          0.87600        2.49100        0.01000
