19
119-32-4.pdb
C         -2.98000        0.10200        0.03400
C         -1.48000       -0.00900        0.02200
C         -0.74200        1.18700        0.00200
C          0.65600        1.17900       -0.02600
C          1.36600       -0.01900        0.00800
N          2.75300       -0.01900       -0.16500
C          0.65000       -1.21600       -0.02300
C         -0.76100       -1.22400        0.00300
N         -1.42500       -2.54700       -0.00400
O         -2.66100       -2.59800        0.00400
O         -0.69900       -3.55300       -0.01300
H         -3.30500        1.14800        0.04900
H         -3.39600       -0.36900        0.93000
H         -3.40600       -0.34600       -0.87000
H         -1.25200        2.15000       -0.00900
H          1.18600        2.12700       -0.07800
H          3.21600        0.82600        0.15400
H          3.22000       -0.85900        0.16400
H          1.20600       -2.15100       -0.07300
