28
119-53-9.pdb
O          1.03800        0.04000        0.08100
C          2.44400        0.07300       -0.13400
C          2.82800       -0.75300       -1.35900
C          3.45000       -0.21400       -2.49600
C          3.81800       -1.03100       -3.56900
C          3.56400       -2.39800       -3.52900
C          2.93400       -2.95200       -2.41900
C          2.56900       -2.13800       -1.34500
C          3.08300        1.47500       -0.07100
O          4.11300        1.66400        0.58600
C          2.54300        2.62100       -0.87200
C          1.25500        2.66300       -1.40800
C          0.83900        3.76300       -2.16600
C          1.70900        4.82600       -2.40000
C          2.99900        4.79500       -1.87800
C          3.41300        3.70000       -1.11700
H          0.63900       -0.51200       -0.61300
H          2.87100       -0.45200        0.73200
H          3.68700        0.84300       -2.57500
H          4.31600       -0.59600       -4.43300
H          3.86700       -3.03100       -4.35800
H          2.73800       -4.02000       -2.38300
H          2.09200       -2.59500       -0.47900
H          0.53900        1.86700       -1.24400
H         -0.17100        3.79200       -2.56900
H          1.38000        5.68100       -2.98600
H          3.68400        5.61900       -2.06300
H          4.42800        3.68800       -0.72200
