21
119-51-7.pdb
C          1.14700       -0.45400        0.32000
C          2.55900        0.00600        0.06400
N          3.15000        1.02300        0.62300
O          2.32800        1.65800        1.55700
C          3.32800       -0.78500       -0.97700
O          2.69300       -1.29500       -1.89700
C          4.80300       -0.93100       -0.90700
C          5.50100       -0.88900        0.30500
C          6.89200       -1.02100        0.31300
C          7.58700       -1.20100       -0.88400
C          6.89400       -1.26100       -2.09100
C          5.50400       -1.13400       -2.10300
H          0.63300        0.15200        1.06800
H          1.16500       -1.49100        0.66700
H          0.57400       -0.39900       -0.61000
H          2.88500        2.39800        1.86400
H          4.98300       -0.75600        1.25000
H          7.43600       -0.98100        1.25500
H          8.67100       -1.29600       -0.87400
H          7.43500       -1.40500       -3.02300
H          4.97100       -1.18300       -3.05100
