22
119-64-2.pdb
C          2.50700       -0.63200       -0.30400
C          2.46300        0.72900        0.37800
C          1.23300        1.51300       -0.07600
C         -0.03800        0.70200       -0.01800
C         -1.27400        1.36600       -0.05300
C         -2.46800        0.64600       -0.02100
C         -2.44100       -0.74500        0.03400
C         -1.22000       -1.41600        0.05300
C         -0.01100       -0.70400        0.01700
C          1.28900       -1.46700        0.08900
H          3.42300       -1.16600       -0.02600
H          2.53200       -0.49700       -1.39300
H          3.37000        1.29800        0.14400
H          2.43900        0.59400        1.46700
H          1.37700        1.84800       -1.11100
H          1.13500        2.40600        0.55200
H         -1.31000        2.45200       -0.10000
H         -3.42000        1.17100       -0.03800
H         -3.37100       -1.30600        0.06400
H         -1.21200       -2.50300        0.10200
H          1.24200       -2.34900       -0.56100
H          1.41400       -1.82200        1.12000
