25
119-81-3.pdb
C          1.32900       -0.49600       -0.08400
O          2.59000        0.13100       -0.29200
C          3.22400        0.63600        0.80600
C          2.77300        0.56700        2.11800
C          3.52000        1.13600        3.16100
C          4.73400        1.79500        2.92500
N          5.45200        2.42000        3.98200
C          5.09800        2.52600        5.31400
C          6.08100        3.33600        6.12300
O          4.08800        2.07400        5.84200
C          5.20000        1.82700        1.58900
C          4.44200        1.26100        0.54400
N          6.49100        2.43600        1.22700
O          7.18400        2.92000        2.13600
O          6.82400        2.43000        0.03400
H          1.00500       -0.91700       -1.04100
H          0.57900        0.23500        0.23400
H          1.40500       -1.32300        0.62900
H          1.83900        0.07800        2.38000
H          3.10700        1.03900        4.16100
H          6.32600        2.87400        3.71000
H          7.08600        3.29700        5.69500
H          6.12800        2.93100        7.13800
H          5.74100        4.37500        6.16100
H          4.78700        1.30000       -0.48800
