38
119237-64-8.pdb
C         -1.22600       -0.66700        0.12500
C          0.13200       -1.25300       -0.18400
N          1.06900       -0.13200        0.13400
C          0.32100        1.19700       -0.01700
C         -1.10300        0.75700       -0.38500
C          0.47900        2.05600        1.28100
C          1.95800        2.36800        1.53300
C          2.72300        3.07100        0.58500
C          4.05300        3.40100        0.84300
C          4.64000        3.03700        2.05000
C          3.90100        2.32900        2.99500
C          2.56800        1.99500        2.74200
C         -0.35900        3.33100        1.33400
C         -0.81800        3.80100        2.57900
C         -1.60700        4.95200        2.66900
C         -1.93700        5.66100        1.51900
C         -1.45300        5.23600        0.28100
C         -0.66700        4.08600        0.19100
H         -1.41400       -0.67000        1.20400
H         -2.03500       -1.21600       -0.36600
H          0.25400       -1.48100       -1.24700
H          0.39400       -2.11800        0.43000
H          1.90400       -0.14900       -0.47000
H          1.42800       -0.23600        1.09400
H          0.77500        1.69300       -0.88300
H         -1.19900        0.75300       -1.47900
H         -1.89200        1.40400        0.00400
H          0.12200        1.42000        2.10300
H          2.28900        3.41400       -0.35100
H          4.62500        3.97400        0.11400
H          5.66700        3.32700        2.26400
H          4.36200        2.06500        3.94600
H          2.01200        1.47600        3.52100
H         -0.55900        3.28500        3.50200
H         -1.95900        5.29900        3.63900
H         -2.55300        6.55400        1.58500
H         -1.69100        5.81000       -0.61000
H         -0.29600        3.81200       -0.79400
