20
1193-11-9.pdb
C          0.99800        0.09600        0.01600
C          2.50800       -0.00700       -0.03600
C          3.06600       -1.19400        0.71700
O          4.39300       -0.80300        1.07900
C          4.40900        0.63000        1.00800
C          4.76300        1.21400        2.36900
C          5.43800        1.03500       -0.04300
O          3.11300        1.10700        0.62200
H          0.52700       -0.74800       -0.49700
H          0.66200        1.02700       -0.45400
H          0.63900        0.12200        1.05100
H          2.84900       -0.00800       -1.07700
H          3.09500       -2.10200        0.11000
H          2.51400       -1.40100        1.64000
H          5.73500        0.85000        2.71900
H          4.01800        0.92300        3.11900
H          4.77900        2.30800        2.33800
H          6.44100        0.69400        0.23300
H          5.45200        2.12200       -0.19100
H          5.20500        0.58000       -1.01200
