18
1193-18-6.pdb
C         -2.56800       -1.13100        0.00600
C         -1.26200       -0.39000        0.02300
C         -0.08900       -1.03400       -0.09400
C          1.20000       -0.30500       -0.01100
O          2.25400       -0.93500       -0.08500
C          1.17100        1.18300        0.25200
C         -0.09300        1.82100       -0.30400
C         -1.35100        1.10700        0.18400
H         -2.42700       -2.21100       -0.10800
H         -3.18900       -0.78700       -0.82700
H         -3.11200       -0.96200        0.94100
H         -0.01400       -2.10900       -0.21500
H          2.04500        1.63900       -0.22700
H          1.24600        1.34200        1.33400
H         -0.06300        1.78600       -1.40100
H         -0.13300        2.87900       -0.02200
H         -2.20700        1.49400       -0.38200
H         -1.53000        1.33900        1.24100
