23
1193-47-1.pdb
C          0.87300        0.08600        0.07700
C          2.40700        0.07600       -0.00800
C          2.97100        0.42900        1.37800
C          2.92800        1.08900       -1.04900
C          2.56800        0.71600       -2.48900
C          3.05100       -0.69100       -2.84000
C          2.55000       -1.73600       -1.85500
C          2.88200       -1.31900       -0.43600
O          3.45900       -2.09000        0.32700
H          0.50300        1.06600        0.39800
H          0.51800       -0.66200        0.79500
H          0.39600       -0.14700       -0.88000
H          2.64500        1.42600        1.69600
H          4.06700        0.41700        1.38000
H          2.63600       -0.28800        2.13700
H          4.02300        1.15400       -0.97800
H          2.54200        2.09200       -0.82900
H          3.02700        1.43700       -3.17600
H          1.48600        0.78700       -2.64200
H          4.14800       -0.69900       -2.84800
H          2.72200       -0.95100       -3.85200
H          3.02200       -2.70300       -2.06300
H          1.46800       -1.87600       -1.93800
