15
1193-92-6.pdb
O          0.91900        0.40600        0.10700
N          2.27800        0.51200       -0.20800
C          2.96100        0.54900        0.89300
C          4.42700        0.64300        0.89700
C          5.16600        0.74100       -0.28100
C          6.55500        0.80400       -0.20600
C          7.14900        0.76800        1.04700
N          6.45800        0.67900        2.20600
C          5.10800        0.61900        2.10500
H          0.50400        0.34600       -0.77400
H          2.45500        0.50000        1.87400
H          4.67000        0.76400       -1.24800
H          7.15900        0.87700       -1.10300
H          8.23000        0.80800        1.15500
H          4.58600        0.54400        3.05500
