25
1193-81-3.pdb
C          2.80100        1.25200       -0.94500
C          2.40500        0.06200       -0.07600
O          2.91200       -1.12000       -0.70000
C          2.91800        0.13800        1.38200
C          2.46500       -1.10700        2.17500
C          2.88900       -1.05100        3.64200
C          2.39900        0.22500        4.31300
C          2.89200        1.45500        3.56400
C          2.47000        1.42500        2.09500
H          2.46700        1.09100       -1.97600
H          3.88900        1.36500       -0.98100
H          2.35800        2.18500       -0.59000
H          1.31200       -0.02200       -0.07500
H          3.87400       -1.01300       -0.80000
H          4.01700        0.12100        1.35800
H          2.88000       -2.01800        1.72400
H          1.37300       -1.20100        2.12100
H          3.98200       -1.10700        3.70900
H          2.49100       -1.92400        4.17300
H          2.75200        0.25700        5.35000
H          1.30300        0.22800        4.34800
H          3.98500        1.51100        3.62700
H          2.49800        2.36000        4.04100
H          2.90000        2.30300        1.60200
H          1.37900        1.52400        2.03100
