16
1193-62-0.pdb
C          1.20800        0.63300       -0.08000
O          2.63400        0.71000       -0.09600
C          3.21600        0.59000        1.12700
O          2.61700        0.44900        2.18600
C          4.65200        0.63900        1.00700
N          5.48100        0.47700        2.09600
C          6.79200        0.54500        1.70600
C          6.81800        0.77400        0.35000
C          5.47400        0.83400       -0.09100
H          0.86900        0.43400       -1.10000
H          0.79000        1.59000        0.24700
H          0.85300       -0.18200        0.56000
H          5.15000        0.32000        3.04100
H          7.59100        0.42700        2.42600
H          7.70700        0.88300       -0.25700
H          5.13600        0.99900       -1.10700
