22
1195-32-0.pdb
C          3.13100        1.25600       -0.69700
C          2.46500        0.08100       -0.03000
C          1.25800        0.22700        0.54400
C          3.18600       -1.22100       -0.01600
C          2.49300       -2.44100       -0.04000
C          3.17100       -3.66700       -0.04100
C          4.56600       -3.70500       -0.02900
C          5.30800       -5.00800       -0.03700
C          5.27000       -2.49800       -0.01500
C          4.58800       -1.27500       -0.01000
H          2.48000        2.13800       -0.71200
H          3.37800        1.02000       -1.73800
H          4.04500        1.54800       -0.17100
H          0.74000        1.18200        0.52900
H          0.75000       -0.57800        1.06300
H          1.40600       -2.46200       -0.07300
H          2.59400       -4.58900       -0.05600
H          4.62200       -5.86100       -0.04100
H          5.94000       -5.08900        0.85300
H          5.93600       -5.07800       -0.93200
H          6.35800       -2.49900       -0.00700
H          5.18300       -0.36600        0.01200
