14
1195-08-0.pdb
O          2.50400        0.14900       -1.15900
C          2.25700       -0.11400        0.01300
C          3.00100        0.47700        1.14400
C          4.00600        1.33200        0.91500
N          4.70600        1.89600        1.94800
C          4.43900        1.65300        3.26900
O          5.08400        2.17200        4.17200
N          3.40700        0.78900        3.50900
C          2.67100        0.14700        2.54800
O          1.78800       -0.65700        2.82800
H          1.45200       -0.81500        0.29000
H          4.31300        1.61900       -0.08700
H          5.47000        2.53800        1.76200
H          3.20000        0.58200        4.47400
