18
1195-14-8.pdb
C         -3.38700        0.66700        0.01400
C         -1.91200        0.45000        0.01200
S         -1.26900       -1.12800        0.01200
C          0.35500       -0.55700        0.01400
C          1.53000       -1.33500        0.02500
C          2.76700       -0.69000        0.01700
C          2.84100        0.69600       -0.00900
C          1.67300        1.46500       -0.01700
C          0.40300        0.83900        0.00000
C         -0.91700        1.40200        0.01200
H         -3.94800       -0.27300       -0.01400
H         -3.68100        1.25900       -0.85900
H         -3.68700        1.21200        0.91500
H          1.47300       -2.42000        0.04100
H          3.68000       -1.28000        0.03000
H          3.81000        1.18900       -0.02100
H          1.74200        2.54900       -0.03600
H         -1.11600        2.46700        0.01800
