26
1197-18-8.pdb
N          0.90000       -0.09600       -0.18200
C          2.35200        0.00700       -0.07100
C          2.83400        1.37200        0.45700
C          2.28300        1.66800        1.86100
C          2.75200        3.02300        2.38600
C          2.39200        4.15300        1.41600
C          2.98300        3.86900        0.02900
C          2.51500        2.52000       -0.51500
C          2.87400        5.49300        1.94900
O          2.25000        5.86900        3.09000
O          3.71600        6.20000        1.41300
H          0.65600       -1.01800       -0.54400
H          0.55600        0.57200       -0.87000
H          2.80000       -0.18800       -1.05100
H          2.70300       -0.78200        0.60400
H          3.92800        1.30900        0.54000
H          2.60100        0.88300        2.55800
H          1.18600        1.65800        1.85200
H          3.83700        3.00100        2.54800
H          2.29900        3.19500        3.36900
H          1.30100        4.22400        1.31200
H          4.08000        3.88000        0.07600
H          2.69600        4.66200       -0.67300
H          2.99800        2.33300       -1.48100
H          1.43600        2.57800       -0.70400
H          1.58000        5.23300        3.40500
