21
1197-19-9.pdb
C          1.25200       -0.07900        0.74700
N          2.42700        0.11600       -0.09200
C          2.90500       -1.01400       -0.87700
C          3.13400        1.31200       -0.07100
C          2.76400        2.38400        0.76000
C          3.49100        3.58100        0.79900
C          4.61500        3.74200       -0.00600
C          4.99700        2.70800       -0.85800
C          4.26300        1.51700       -0.88400
C          5.37900        4.94900        0.04600
N          6.00300        5.92700        0.09200
H          0.81300       -1.07300        0.61400
H          0.47300        0.64800        0.49300
H          1.50600        0.02000        1.80900
H          2.27800       -1.90300       -0.74700
H          3.92200       -1.29500       -0.58000
H          2.89700       -0.77200       -1.94600
H          1.89900        2.31000        1.41300
H          3.17000        4.37600        1.46800
H          5.86500        2.81000       -1.50400
H          4.60600        0.74300       -1.56500
