20
1197-55-3.pdb
N          2.44400       -0.18600       -0.20900
C          1.05700       -0.09600       -0.04500
C          0.43000        1.15000        0.00100
C         -0.96500        1.25100        0.05700
C         -1.76100        0.10000        0.03100
C         -3.26600        0.19600        0.14900
C         -4.07400        0.24400       -1.12700
O         -3.39000        0.28200       -2.28800
O         -5.30100        0.25900       -1.11600
C         -1.13500       -1.14600       -0.10000
C          0.26000       -1.23700       -0.15400
H          2.95700        0.60100        0.17800
H          2.83500       -1.07500        0.08900
H          1.02800        2.05900        0.01300
H         -1.41500        2.23900        0.13500
H         -3.51700        1.09300        0.72800
H         -3.61900       -0.66800        0.72600
H         -2.41800        0.26600       -2.19400
H         -1.72300       -2.06100       -0.14900
H          0.72200       -2.21500       -0.26400
