18
1198-30-7.pdb
N          1.06500       -0.11100        0.12400
C          2.22600       -0.08800        0.12900
C          3.66400       -0.00700        0.12600
N          4.28700       -1.21600        0.10400
C          5.63300       -1.20800        0.07400
C          6.39400       -0.05300        0.06400
C          5.74500        1.18700        0.06900
C          6.48100        2.38200        0.01300
C          5.83600        3.61800       -0.02100
C          4.44900        3.68000        0.03700
C          3.70200        2.50300        0.11500
C          4.33400        1.23400        0.11000
H          6.10400       -2.18800        0.04700
H          7.47700       -0.12500        0.03800
H          7.56900        2.36000       -0.02200
H          6.41900        4.53300       -0.09800
H          3.94400        4.64300        0.01400
H          2.61700        2.58800        0.16700
