29
120-46-7.pdb
O          2.44900       -0.89600        0.66900
C          2.29800        0.11600       -0.02000
C          2.97600        0.22500       -1.36200
C          2.06700        0.35400       -2.55700
O          2.14100        1.34500       -3.28600
C          1.07900       -0.71700       -2.88200
C          1.02400       -1.93200       -2.19200
C          0.06200       -2.88800       -2.53000
C         -0.83700       -2.64400       -3.56700
C         -0.77800       -1.44500       -4.27100
C          0.17600       -0.48400       -3.93000
C          1.46800        1.24200        0.50900
C          0.91000        1.10600        1.78900
C          0.13200        2.12900        2.33600
C         -0.10400        3.29000        1.60500
C          0.44300        3.43300        0.33200
C          1.23500        2.41800       -0.21200
H          3.62200       -0.64700       -1.51500
H          3.65300        1.08800       -1.33000
H          1.71300       -2.17400       -1.38800
H          0.01600       -3.82500       -1.98100
H         -1.58300       -3.39100       -3.82700
H         -1.47200       -1.25400       -5.08600
H          0.21000        0.45000       -4.49000
H          1.08300        0.20400        2.37400
H         -0.28900        2.01800        3.33300
H         -0.71100        4.08700        2.02700
H          0.25900        4.33800       -0.24200
H          1.65200        2.58700       -1.19900
