17
120-57-0.pdb
O          2.61800       -1.04300        0.26300
C          2.33200        0.11600       -0.01000
C          3.17200        0.94300       -0.89900
C          4.34300        0.39500       -1.46200
C          5.14700        1.16600       -2.30600
C          4.75300        2.46200       -2.55700
O          5.40800        3.35100       -3.35000
C          4.54100        4.49900       -3.24900
O          3.40800        4.28600       -2.38000
C          3.61000        2.99500       -2.00400
C          2.79100        2.26200       -1.16900
H          1.42700        0.59400        0.40100
H          4.62400       -0.63300       -1.24100
H          6.05000        0.75800       -2.74900
H          4.17200        4.74700       -4.25100
H          5.12300        5.34600       -2.86900
H          1.89500        2.70500       -0.75000
