24
120-61-6.pdb
C          1.13900       -0.50300        1.24200
O          2.56700       -0.44900        1.20700
C          3.11800       -1.27100        0.28000
O          2.51300       -1.99700       -0.49100
C          4.59900       -1.22900        0.37200
C          5.28800       -0.10900        0.86000
C          6.68800       -0.11800        0.91900
C          7.40000       -1.24900        0.49600
C          6.70800       -2.36800        0.01300
C          5.31400       -2.35200       -0.06000
C          8.88000       -1.32500        0.55900
O          9.49400       -2.37800        0.62900
O          9.42300       -0.08600        0.46600
C         10.85100       -0.09400        0.43100
H          0.78900        0.23000        1.97300
H          0.80300       -1.49700        1.55800
H          0.71900       -0.24500        0.26500
H          4.74700        0.77400        1.19200
H          7.21100        0.75600        1.30100
H          7.25300       -3.25200       -0.31200
H          4.78700       -3.22200       -0.44800
H         11.19600        0.93500        0.30200
H         11.21500       -0.68700       -0.41600
H         11.25200       -0.48000        1.37300
