13
120-73-0.pdb
N         -1.53000       -1.13700       -0.00900
C         -2.29900       -0.00400       -0.01800
N         -1.56400        1.08600       -0.01000
C         -0.26900        0.64000       -0.00300
N          0.82800        1.41700       -0.00200
C          1.96400        0.70600       -0.00500
N          2.10600       -0.63900       -0.00300
C          0.99000       -1.39600       -0.00100
C         -0.22200       -0.74300       -0.00400
H         -1.87500       -2.08600       -0.01300
H         -3.38100       -0.03600       -0.03300
H          2.88500        1.28000       -0.01100
H          1.10900       -2.47100       -0.00100
