22
120-47-8.pdb
C          6.23500        1.01900        0.38500
C          5.19900       -0.02700        0.75900
O          5.16700       -1.00300       -0.28700
C          4.36000       -0.71100       -1.33500
O          3.44900        0.10000       -1.34500
C          4.84300       -1.43000       -2.54600
C          4.20700       -1.17300       -3.76900
C          4.70600       -1.72700       -4.95000
C          5.83900       -2.53400       -4.90300
O          6.38100       -3.06600       -6.03400
C          6.46700       -2.81500       -3.69500
C          5.97000       -2.26600       -2.51400
H          6.35100        1.76500        1.17400
H          5.95500        1.52800       -0.54400
H          7.20500        0.54400        0.19700
H          4.21600        0.42100        0.93700
H          5.50300       -0.53900        1.67800
H          3.33700       -0.52100       -3.80600
H          4.21100       -1.50400       -5.89000
H          5.87900       -2.74600       -6.80100
H          7.35500       -3.44100       -3.67500
H          6.48900       -2.47500       -1.58200
