32
120-35-4.pdb
C          3.27200       -1.14800        0.23900
O          2.47800        0.03300        0.33700
C          3.11500        1.19400       -0.03800
C          4.18300        1.23200       -0.93700
C          4.80700        2.44200       -1.22000
C          4.34300        3.63400       -0.64700
C          3.24100        3.61000        0.21100
C          2.65000        2.38600        0.55800
N          1.48900        2.38100        1.35700
C          5.12400        4.86400       -0.93200
O          6.33100        4.72400       -1.10300
N          4.41800        6.05000       -0.99400
C          4.96400        7.33400       -1.22600
C          6.32500        7.57600       -1.43600
C          6.80000        8.87500       -1.64000
C          5.91700        9.94800       -1.63600
C          4.55700        9.72300       -1.43600
C          4.08300        8.42200       -1.23500
H          2.74700       -1.95400        0.76100
H          4.24500       -1.01500        0.72600
H          3.39500       -1.45400       -0.80500
H          4.55600        0.34000       -1.42700
H          5.66900        2.45700       -1.88800
H          2.86600        4.52300        0.66300
H          1.46200        3.10800        2.06300
H          1.32100        1.45000        1.74000
H          3.41300        6.00300       -0.90500
H          7.05500        6.77300       -1.45200
H          7.86300        9.03700       -1.80100
H          6.29100       10.95800       -1.78800
H          3.86600       10.56000       -1.43400
H          3.01700        8.27800       -1.08000
