22
120-66-1.pdb
C          0.96900        1.43400       -1.35000
C          2.42100        1.78100       -1.56000
O          2.73700        2.85600       -2.05500
N          3.27000        0.75800       -1.16700
C          4.68600        0.79500       -1.14900
C          5.39000        2.00200       -1.26100
C          6.78400        2.03300       -1.23400
C          7.50200        0.85400       -1.08300
C          6.82200       -0.35500       -0.95400
C          5.41500       -0.40400       -0.98900
C          4.75400       -1.75000       -0.85600
H          0.35300        2.31300       -1.56600
H          0.79800        1.14100       -0.31100
H          0.67700        0.62400       -2.02300
H          2.83800       -0.12700       -0.94600
H          4.87400        2.95300       -1.35400
H          7.30300        2.98300       -1.32800
H          8.58800        0.87700       -1.06400
H          7.40200       -1.26700       -0.83400
H          5.48600       -2.56400       -0.91100
H          4.04000       -1.90900       -1.67200
H          4.23800       -1.82600        0.10500
