25
1201-38-3.pdb
C          1.32800       -0.47400       -0.31700
O          2.53600        0.21200       -0.00700
C          3.18300       -0.16300        1.13700
C          2.74400       -1.12400        2.04300
C          3.49200       -1.41000        3.19100
C          4.69600       -0.74600        3.45200
O          5.42900       -0.92200        4.59500
C          5.01000       -1.92600        5.50800
C          5.16100        0.19500        2.51800
C          4.38900        0.49600        1.38200
C          6.45600        0.92200        2.66400
C          7.63600        0.25000        3.31900
O          6.56000        2.06100        2.20300
H          0.96200       -0.09700       -1.27700
H          0.55800       -0.27500        0.43500
H          1.50100       -1.55000       -0.42900
H          1.81400       -1.66300        1.89600
H          3.09000       -2.15500        3.87200
H          5.71200       -1.92700        6.34600
H          5.04300       -2.91800        5.04300
H          4.01500       -1.70800        5.90900
H          4.73400        1.25100        0.67600
H          7.51300       -0.83100        3.40100
H          7.79900        0.68500        4.30900
H          8.52300        0.41500        2.69800
