24
1204-60-0.pdb
O          1.13200       -0.35700        0.07200
C          2.22500        0.19500        0.05900
C          3.02000        0.39000        1.28800
C          2.52900       -0.04000        2.51900
C          3.29400        0.15400        3.66400
C          4.55100        0.76500        3.57000
C          5.08300        1.17800        2.33300
C          4.28000        0.99300        1.19200
C          6.45700        1.72500        2.22300
C          7.49700        1.24000        3.03800
C          8.81200        1.69400        2.89800
C          9.12100        2.64400        1.93200
C          8.11200        3.15400        1.12100
C          6.79500        2.70600        1.27200
H          2.66200        0.57500       -0.87800
H          1.55900       -0.52800        2.58800
H          2.92100       -0.17600        4.63000
H          5.11700        0.90700        4.48900
H          4.65300        1.28900        0.21400
H          7.30200        0.47100        3.78300
H          9.59300        1.29200        3.53700
H         10.14600        2.98400        1.81000
H          8.34900        3.89700        0.36400
H          6.03300        3.13900        0.62700
