25
1205-02-3.pdb
C          0.84200       -0.06200        0.04600
C          2.36600        0.02700        0.04000
N          2.87300        0.43200        1.34700
C          2.67900        1.69100        1.86200
O          2.10700        2.58300        1.24500
C          3.20400        1.93100        3.23400
C          3.51100        3.24500        3.61100
C          3.97100        3.51500        4.90200
C          4.11800        2.47700        5.82200
C          3.80400        1.16900        5.45600
C          3.34500        0.89300        4.16600
C          2.98500       -1.33900       -0.29400
O          2.68200       -1.80500       -1.52700
O          3.71400       -1.95700        0.47100
H          0.38500        0.90500        0.27800
H          0.49400       -0.78000        0.79700
H          0.45300       -0.38300       -0.92500
H          2.71600        0.75800       -0.69700
H          3.53500       -0.20200        1.78900
H          3.38700        4.06000        2.90100
H          4.20700        4.53600        5.19000
H          4.46500        2.69000        6.82900
H          3.90400        0.36400        6.18000
H          3.07200       -0.12900        3.91800
H          2.11900       -1.21400       -2.06100
