24
1205-91-0.pdb
C          1.23600       -2.39100       -0.01800
C          2.63600       -1.94400       -0.30800
O          3.25200       -2.23600       -1.32800
O          3.10500       -1.19100        0.76500
C          4.49900       -1.05000        0.87700
C          5.01100        0.19400        1.24900
C          6.39100        0.34400        1.44600
C          7.23000       -0.75500        1.27300
O          8.64000       -0.73800        1.39100
C          9.44500        0.36300        1.68500
C         10.88300       -0.05700        1.58700
O          9.07600        1.50100        1.93500
C          6.70800       -2.00500        0.93300
C          5.33700       -2.15700        0.74700
H          0.92100       -3.10700       -0.78300
H          0.55700       -1.53600       -0.02300
H          1.21100       -2.90200        0.94900
H          4.35100        1.04500        1.38600
H          6.77300        1.31900        1.73300
H         11.00700       -1.08300        1.94500
H         11.49300        0.59200        2.22200
H         11.21600        0.02000        0.55000
H          7.36400       -2.86100        0.81100
H          4.94000       -3.13500        0.49300
