27
1207-12-1.pdb
C          1.01100       -0.14000       -0.05400
C          2.50900       -0.05500       -0.05300
C          3.13600        1.18500       -0.05400
C          4.52500        1.27500       -0.05500
C          5.29500        0.09600       -0.05600
S          7.00000        0.02800       -0.05900
C          7.02600       -1.68100       -0.05900
C          8.19600       -2.46600       -0.06100
C          8.08500       -3.84800       -0.06100
C          6.83300       -4.44000       -0.05900
C          5.64600       -3.67100       -0.05700
C          4.34300       -4.43000       -0.05600
C          5.74000       -2.23700       -0.05700
C          4.71900       -1.17800       -0.05600
C          3.29300       -1.22700       -0.05400
H          0.55400        0.85700       -0.05400
H          0.65900       -0.66500        0.84000
H          0.65900       -0.66500       -0.94800
H          2.55100        2.10300       -0.05400
H          5.00900        2.24900       -0.05600
H          9.17500       -1.99500       -0.06300
H          8.98100       -4.46300       -0.06300
H          6.77800       -5.52800       -0.05900
H          4.50400       -5.51300       -0.05600
H          3.76300       -4.18600       -0.95100
H          3.76600       -4.18600        0.84200
H          2.78700       -2.18800       -0.05400
