29
121-00-6.pdb
C          0.98400        0.05300        0.02300
O          2.40500        0.07400        0.01600
C          3.00700        1.30400       -0.01300
C          2.35600        2.53000       -0.02000
C          3.10700        3.70500       -0.03400
C          4.50700        3.65700       -0.05300
O          5.18100        4.84400       -0.01900
C          5.20600        2.43800       -0.07800
C          4.40800        1.27100       -0.03200
C          6.74700        2.31500       -0.08900
C          7.24200        2.27800        1.37000
C          7.22200        1.01700       -0.79600
C          7.48400        3.46100       -0.82300
H          0.66500       -0.99400        0.02000
H          0.57600        0.52700       -0.87600
H          0.58900        0.51900        0.93100
H          1.27600        2.61000       -0.00300
H          2.58100        4.65500       -0.02000
H          4.54600        5.57700       -0.04900
H          4.86700        0.28500        0.00100
H          6.82400        1.42300        1.91500
H          6.95500        3.18600        1.91400
H          8.33400        2.19600        1.41500
H          6.93500        0.11100       -0.24900
H          8.31500        0.98300       -0.87700
H          6.81200        0.94800       -1.80900
H          7.40700        4.41900       -0.30200
H          7.11000        3.58600       -1.84500
H          8.56100        3.25700       -0.88700
