22
121-32-4.pdb
C          0.95300       -0.68700       -0.48900
C          2.17500       -0.12100        0.21800
O          2.99300       -1.22700        0.58600
C          3.76700       -1.11000        1.70700
C          4.31100        0.08700        2.17900
C          5.12800        0.06800        3.31900
C          5.71000        1.32800        3.82600
O          6.42900        1.36200        4.81800
C          5.40900       -1.13200        3.98100
C          4.87600       -2.32700        3.50500
C          4.06400       -2.30900        2.37200
O          3.53300       -3.47800        1.89600
H          0.28700        0.10900       -0.83000
H          0.39600       -1.34700        0.18600
H          1.24900       -1.29700       -1.34900
H          1.84500        0.46000        1.08700
H          2.73400        0.52600       -0.46700
H          4.12400        1.02200        1.66100
H          5.46800        2.24700        3.26700
H          6.04800       -1.13800        4.86200
H          5.10400       -3.25400        4.02100
H          3.82600       -4.21400        2.45400
