19
121-33-5.pdb
C          1.03400        0.02700       -0.02800
O          2.45500       -0.00400       -0.04300
C          3.10900        1.20000       -0.05600
C          2.48300        2.44800       -0.05300
C          3.25200        3.61800       -0.07000
C          2.58500        4.93600       -0.06600
O          1.36500        5.04800       -0.05000
C          4.64800        3.55700       -0.09100
C          5.28100        2.31300       -0.09000
C          4.51200        1.14700       -0.07200
O          5.13200       -0.07400       -0.06900
H          0.67600       -1.00700       -0.04000
H          0.63900        0.52600       -0.91800
H          0.66200        0.49800        0.88800
H          1.40100        2.54300       -0.03600
H          3.24200        5.82200       -0.07900
H          5.24900        4.46200       -0.10600
H          6.36600        2.26800       -0.10500
H          6.09400        0.05100       -0.05500
