17
121-88-0.pdb
N          1.70400       -1.44100        0.18300
C          0.50700       -0.73400       -0.01200
C         -0.71700       -1.40800        0.01600
C         -1.92000       -0.69700       -0.01600
C         -1.89400        0.70500       -0.03700
C         -0.67900        1.40100       -0.03100
C          0.50700        0.67100       -0.00500
O          1.72100        1.31100        0.00400
N         -3.15700        1.45400       -0.04500
O         -4.21200        0.80600       -0.03600
O         -3.09000        2.69200       -0.06100
H          1.71800       -2.37000       -0.22200
H          2.50800       -0.87200       -0.08000
H         -0.74000       -2.49300        0.07500
H         -2.85900       -1.24600       -0.00400
H         -0.65800        2.48700       -0.03600
H          1.57400        2.27000        0.05400
