19
121-52-8.pdb
N          1.20100       -0.28200       -0.18300
S          2.81700        0.04500        0.10700
O          3.53400       -0.27700       -1.10400
O          2.83800        1.36100        0.70700
C          3.21300       -1.16300        1.33600
C          3.65900       -0.74500        2.59400
C          3.89200       -1.69100        3.59300
C          3.67700       -3.04600        3.33600
C          3.23900       -3.45400        2.06600
C          3.01500       -2.51600        1.05100
N          2.98500       -4.87700        1.80900
O          3.12900       -5.66700        2.75200
O          2.63200       -5.20200        0.66700
H          1.04900       -0.44900       -1.18000
H          0.61100        0.45800        0.20100
H          3.81200        0.31200        2.80900
H          4.22800       -1.36900        4.57700
H          3.84500       -3.76800        4.13300
H          2.67100       -2.81900        0.06400
