24
121-97-1.pdb
C          0.98500        0.34100        0.48500
C          2.47300        0.48400        0.75900
C          3.09300       -0.80900        1.26100
O          2.43000       -1.82900        1.43800
C          4.56000       -0.83200        1.55000
C          5.37900        0.28600        1.35700
C          6.74900        0.21900        1.64300
C          7.31400       -0.96400        2.12000
O          8.63100       -1.15800        2.42800
C          9.50100       -0.04600        2.26400
C          6.49600       -2.07900        2.31300
C          5.12900       -2.01700        2.03100
H          0.57700        1.28000        0.09800
H          0.44100        0.08300        1.40000
H          0.79500       -0.44500       -0.25300
H          2.62000        1.26200        1.51600
H          2.97300        0.77900       -0.16900
H          4.98200        1.22500        0.98400
H          7.34700        1.11000        1.47800
H         10.51500       -0.37300        2.51300
H          9.23300        0.76500        2.95000
H          9.51100        0.30200        1.22600
H          6.92600       -3.00600        2.68600
H          4.51300       -2.90100        2.18900
