18
121-91-5.pdb
O          1.13300        0.18400        0.05200
C          2.46600        0.05000       -0.08800
O          3.02200       -1.02400       -0.24600
C          3.21900        1.32700       -0.07300
C          2.81200        2.42300        0.69800
C          3.57100        3.59500        0.69600
C          4.75100        3.66100       -0.04800
C          5.18400        2.55400       -0.79100
C          4.40500        1.39200       -0.81900
C          6.45200        2.67900       -1.55100
O          7.13500        1.52600       -1.69500
O          6.85800        3.75000       -1.97300
H          0.79000        1.09400       -0.00900
H          1.92500        2.37800        1.32600
H          3.25600        4.45400        1.28400
H          5.34100        4.57700       -0.04000
H          4.69300        0.53700       -1.42800
H          6.81100        0.76600       -1.17600
