18
121-71-1.pdb
C          2.96300        0.43700        1.43900
C          2.46400       -0.01800        0.09300
O          1.45400        0.47000       -0.41200
C          3.21900       -1.08100       -0.63400
C          2.74700       -1.51000       -1.88300
C          3.42900       -2.50200       -2.59300
C          4.58500       -3.07200       -2.06100
C          5.04800       -2.64200       -0.82100
O          6.17400       -3.16900       -0.26100
C          4.37900       -1.65500       -0.10400
H          2.27900        1.18900        1.84300
H          3.95200        0.89300        1.33900
H          2.99000       -0.40300        2.13800
H          1.84600       -1.07200       -2.30900
H          3.05600       -2.82800       -3.56100
H          5.10600       -3.84100       -2.62200
H          6.54000       -3.83900       -0.86100
H          4.78200       -1.35500        0.85700
