17
121-92-6.pdb
O          1.01900        0.06800       -0.07900
C          2.34800       -0.05500        0.11800
O          2.89800        0.23000        1.16600
C          3.08500       -0.61200       -1.04400
C          2.70000       -0.33800       -2.36500
C          3.43600       -0.86000       -3.43200
C          4.56900       -1.63900       -3.18700
C          4.96600       -1.89100       -1.86700
C          4.22800       -1.38100       -0.79100
N          6.17300       -2.68700       -1.61200
O          6.81700       -3.08400       -2.59300
O          6.47300       -2.91800       -0.43300
H          0.66700       -0.35900       -0.88100
H          1.85400        0.30900       -2.58300
H          3.13900       -0.64500       -4.45700
H          5.13600       -2.03000       -4.03200
H          4.53400       -1.56500        0.23900
