29
1212-53-9.pdb
C          3.89700       -5.81300        1.32500
O          4.42400       -4.48700        1.40300
C          3.71900       -3.66200        2.22400
O          2.71500       -3.99900        2.84100
C          4.28200       -2.25300        2.27900
N          5.43000       -1.93000        1.45000
C          6.73100       -1.92300        1.83900
O          7.58100       -1.33200        1.18200
O          6.96600       -2.65100        2.95900
C          8.36100       -2.86100        3.23600
C          8.96600       -3.84500        2.26100
C          9.96500       -3.43700        1.36500
C         10.49400       -4.33200        0.43500
C         10.03100       -5.64600        0.39200
C          9.03300       -6.06100        1.27200
C          8.50100       -5.16600        2.20100
H          4.57000       -6.41100        0.70400
H          2.90700       -5.80100        0.85700
H          3.84400       -6.27000        2.32000
H          4.52600       -2.02800        3.32100
H          3.48900       -1.57700        1.94200
H          5.28400       -1.55500        0.52400
H          8.44200       -3.27400        4.24800
H          8.89900       -1.90400        3.25300
H         10.31300       -2.40500        1.36400
H         11.25700       -4.00000       -0.26400
H         10.44100       -6.34100       -0.33600
H          8.66300       -7.08200        1.22800
H          7.70800       -5.49600        2.86900
