28
1214-39-7.pdb
C          1.04900        0.10500        0.00700
N          0.56300        1.45400       -0.24100
C         -0.81900        1.60900       -0.26700
N         -1.67600        0.57600       -0.12500
C         -3.00700        0.82800       -0.13800
N         -3.62900        2.00400       -0.28600
C         -2.76400        3.01800       -0.45600
N         -3.10100        4.33000       -0.65600
C         -1.95500        4.95700       -0.79900
N         -0.89200        4.10200       -0.68800
C         -1.39100        2.85300       -0.45000
C          2.56500        0.11400       -0.00400
C          3.29700       -0.24700        1.13700
C          4.69400       -0.27900        1.10500
C          5.37500        0.05400       -0.06300
C          4.66200        0.43100       -1.19900
C          3.26600        0.46100       -1.17000
H          0.70600       -0.58800       -0.77200
H          0.68600       -0.26400        0.97300
H          0.98900        2.13200        0.38200
H         -3.65200       -0.03500       -0.00300
H         -1.83100        6.01500       -0.98200
H          0.08400        4.33800       -0.79400
H          2.78500       -0.51700        2.05900
H          5.25100       -0.57400        1.99100
H          6.46200        0.01700       -0.09000
H          5.19200        0.69300       -2.11200
H          2.71900        0.75200       -2.06500
