29
1214-47-7.pdb
O          2.04000        0.44800       -1.85600
C          0.83800        0.27300       -1.22900
C          0.08700       -0.86800       -1.53300
C         -1.16600       -1.05700       -0.95200
C         -1.67600       -0.10500       -0.07200
C         -0.92600        1.03300        0.23400
C          0.34700        1.23100       -0.32900
C          1.06100        2.48800        0.04000
O          0.41500        3.48600        0.35100
C          2.54800        2.48600        0.08200
C          3.22500        3.64300        0.12100
C          4.68700        3.66700        0.10400
C          5.37000        3.66300       -1.11800
C          6.76700        3.67500       -1.14500
C          7.48700        3.68900        0.04800
C          6.81200        3.69000        1.26900
C          5.41500        3.67700        1.29700
H          2.19100       -0.28500       -2.47700
H          0.45700       -1.61500       -2.22900
H         -1.75200       -1.94100       -1.19400
H         -2.65900       -0.24300        0.37100
H         -1.34200        1.77500        0.91400
H          3.06100        1.53200        0.06800
H          2.72000        4.60600        0.13100
H          4.81700        3.65200       -2.05500
H          7.29000        3.67600       -2.09700
H          8.57400        3.70100        0.02700
H          7.37400        3.70100        2.19900
H          4.90000        3.67800        2.25500
