32
1218-34-4.pdb
C          4.36600        0.21600       -5.00700
C          3.89000        0.32000       -3.58300
O          2.89600        0.95900       -3.25800
N          4.70200       -0.27400       -2.65000
C          4.40600       -0.14100       -1.21300
C          5.09500       -1.24700       -0.39400
C          4.80000       -1.19400        1.07700
C          3.61000       -0.82900        1.68100
N          3.82100       -0.74600        3.03100
C          5.12000       -1.08400        3.33100
C          5.79000       -1.07600        4.56000
C          7.12800       -1.47900        4.57000
C          7.75800       -1.89800        3.40100
C          7.07600       -1.88400        2.17900
C          5.73700       -1.44300        2.13400
C          4.81900        1.27200       -0.74600
O          4.03100        2.25200       -1.25800
O          5.78400        1.53100       -0.04300
H          3.51400       -0.00800       -5.65400
H          5.10900       -0.57700       -5.12300
H          4.81200        1.17000       -5.30300
H          5.65300       -0.50600       -2.91500
H          3.32100       -0.22400       -1.07900
H          6.18000       -1.18200       -0.55000
H          4.78900       -2.22900       -0.77800
H          2.64600       -0.55900        1.26900
H          3.14000       -0.44000        3.71100
H          5.30100       -0.74900        5.47100
H          7.68500       -1.45900        5.50400
H          8.79600       -2.21900        3.43300
H          7.58600       -2.19600        1.27300
H          3.35500        1.90900       -1.89500
