27
122-72-5.pdb
C          4.89900       -3.18900       -1.52700
C          4.30400       -1.82500       -1.66400
O          3.33200       -1.57200       -2.36500
O          5.00400       -0.92300       -0.92500
C          4.54600        0.43300       -1.04200
C          5.06200        1.07200       -2.32900
C          6.59100        1.08400       -2.37400
C          7.11300        1.69500       -3.65000
C          7.34500        3.07400       -3.72800
C          7.81200        3.64600       -4.91100
C          8.05300        2.84500       -6.02600
C          7.82300        1.47100       -5.96000
C          7.35100        0.89800       -4.77800
H          4.30700       -3.89300       -2.12000
H          4.86800       -3.50300       -0.48100
H          5.92400       -3.19000       -1.90500
H          4.92300        0.98200       -0.17000
H          3.45300        0.47200       -0.99000
H          4.66700        2.09300       -2.40800
H          4.68200        0.51800       -3.19500
H          6.98900        0.06600       -2.27800
H          6.98600        1.64300       -1.51700
H          7.16200        3.70900       -2.86500
H          7.98800        4.71700       -4.96200
H          8.41900        3.29000       -6.94700
H          8.01000        0.84700       -6.83000
H          7.17000       -0.17400       -4.74300
