18
122-79-2.pdb
C          1.07200       -0.13900       -0.20000
C          2.54000       -0.08900        0.10700
O          3.00800        0.36700        1.14000
O          3.24200       -0.60900       -0.98100
C          4.64900       -0.71300       -0.96900
C          5.38300       -0.99900        0.18000
C          6.77100       -1.11700        0.09700
C          7.41600       -0.97500       -1.13300
C          6.67300       -0.71700       -2.28600
C          5.28500       -0.58900       -2.20600
H          0.50900        0.13500        0.69800
H          0.78300       -1.15300       -0.48600
H          0.83600        0.57000       -0.99600
H          4.90100       -1.13100        1.14300
H          7.34900       -1.32300        0.99400
H          8.49700       -1.07100       -1.19100
H          7.17500       -0.61800       -3.24400
H          4.70700       -0.39400       -3.10400
