20
122-00-9.pdb
C          1.02400        0.10800       -0.06000
C          2.53000        0.08700       -0.04500
O          3.18000        1.13100       -0.03600
C          3.23400       -1.23100       -0.04100
C          2.54100       -2.44700       -0.04500
C          3.24300       -3.65700       -0.04800
C          4.64200       -3.66900       -0.04800
C          5.40300       -4.96200       -0.05900
C          5.33300       -2.45200       -0.03900
C          4.63400       -1.24200       -0.03600
H          0.68000        1.14600       -0.07900
H          0.63000       -0.36400        0.84400
H          0.64700       -0.38900       -0.95700
H          1.45600       -2.48400       -0.04600
H          2.68600       -4.59200       -0.05300
H          4.72800       -5.82400       -0.06600
H          6.03400       -5.03700        0.83200
H          6.03200       -5.02100       -0.95300
H          6.42100       -2.43800       -0.03700
H          5.19100       -0.30600       -0.03100
