28
122-48-5.pdb
C          1.07000       -0.20100        0.03700
O          2.49100       -0.22300        0.00900
C          3.13900        0.98500        0.00900
C          2.50100        2.23100        0.01700
C          3.23400        3.43000        0.03200
C          2.56100        4.78900        0.01400
C          1.21000        4.85700        0.73300
C          0.61400        6.25000        0.71900
C         -0.72900        6.41900        1.38300
O          1.17600        7.20800        0.18900
C          4.63500        3.35600       -0.00600
C          5.28600        2.12000       -0.01900
C          4.53700        0.94500       -0.00500
O          5.17300       -0.26800       -0.01100
H          0.71600       -1.23600        0.03300
H          0.66500        0.29100       -0.85300
H          0.70200        0.27300        0.95300
H          1.41900        2.27900        0.00200
H          2.44100        5.09300       -1.03300
H          3.23500        5.52100        0.47900
H          1.32300        4.54500        1.77700
H          0.48000        4.20100        0.24800
H         -1.07200        5.47100        1.80800
H         -1.46000        6.75200        0.64100
H         -0.64400        7.15200        2.18900
H          5.23200        4.26600       -0.02800
H          6.37100        2.09400       -0.04500
H          6.13100       -0.12400       -0.01200
