26
122-42-9.pdb
C          2.58800       -1.23400       -0.98300
C          2.64400       -0.06500       -0.00400
C          1.25300        0.50800        0.23400
O          3.18800       -0.52600        1.25300
C          4.55100       -0.56200        1.27900
O          5.24600       -0.16600        0.35100
N          4.99000       -1.13200        2.44400
C          6.33600       -1.36400        2.79700
C          7.40900       -0.78300        2.11200
C          8.72900       -1.07600        2.46100
C          8.99100       -1.95000        3.51300
C          7.93400       -2.51400        4.21900
C          6.61000       -2.21500        3.87300
H          2.20700       -0.91400       -1.95800
H          1.94600       -2.03400       -0.59800
H          3.58000       -1.67400       -1.13000
H          3.26000        0.74400       -0.41600
H          0.58400       -0.23800        0.67500
H          0.81400        0.86200       -0.70500
H          1.30100        1.35000        0.93200
H          4.26000       -1.50600        3.03600
H          7.25700       -0.08300        1.29800
H          9.54400       -0.61900        1.90700
H         10.01900       -2.18600        3.77300
H          8.14100       -3.19500        5.04100
H          5.80700       -2.67800        4.43700
