22
122-97-4.pdb
O          0.93500        0.96200       -2.06200
C          2.34600        1.07500       -2.19600
C          2.95200        1.16100       -0.80200
C          4.47900        1.27700       -0.83100
C          4.97400        2.51100       -1.55200
C          4.59000        3.79100       -1.13000
C          5.01200        4.92500       -1.82200
C          5.84200        4.79400       -2.93400
C          6.25000        3.52800       -3.34800
C          5.81700        2.39000       -2.66500
H          0.57300        0.88600       -2.96000
H          2.56500        1.96900       -2.78700
H          2.71700        0.19400       -2.72900
H          2.65900        0.26700       -0.23600
H          2.50700        2.00300       -0.26000
H          4.89400        0.37400       -1.29700
H          4.86700        1.30100        0.19300
H          3.94900        3.91700       -0.25900
H          4.69300        5.91100       -1.49500
H          6.17400        5.67800       -3.47100
H          6.90700        3.42500       -4.20800
H          6.14000        1.41200       -3.01000
