33
122684-34-8.pdb
C          3.68100       -0.34200        1.66800
C          5.09900       -0.25200        1.08900
C          5.44900        1.16700        0.62000
C          6.08400       -0.64300        2.20400
O          5.30700       -1.21000        0.01400
C          4.56500       -1.11100       -1.12300
O          3.67300       -0.29300       -1.30900
N          4.90800       -2.05300       -2.05900
C          4.24500       -2.12700       -3.33800
C          4.49300       -3.56000       -3.77600
C          5.90400       -3.85200       -3.24500
C          6.00900       -2.99900       -1.97300
C          6.96300       -3.52200       -4.28200
N          6.90900       -4.28100       -5.41700
O          7.83300       -2.66800       -4.15100
H          3.55400        0.34300        2.51400
H          3.46900       -1.36000        2.01600
H          2.90800       -0.09900        0.93500
H          5.39000        1.88600        1.44300
H          4.78200        1.51900       -0.17100
H          6.46300        1.19400        0.20600
H          6.01100        0.03900        3.05900
H          7.11800       -0.63100        1.84100
H          5.89000       -1.66000        2.56200
H          4.73100       -1.41200       -4.01200
H          3.18300       -1.88000       -3.26400
H          4.37000       -3.68000       -4.85500
H          3.77700       -4.22400       -3.27600
H          6.02400       -4.91400       -2.99900
H          6.94900       -2.44800       -1.86800
H          5.86300       -3.60600       -1.07400
H          6.28400       -5.06600       -5.53200
H          7.61600       -4.12000       -6.12300
