18
123-51-3.pdb
C          0.99100        0.02300        0.11500
C          2.52000       -0.01500        0.11000
C          3.02900       -0.35200        1.51400
C          3.07800       -1.02300       -0.90800
C          2.70700       -0.70400       -2.35300
O          3.28000       -1.67200       -3.22400
H          0.62300        0.72200        0.87400
H          0.57200       -0.96500        0.33300
H          0.59500        0.35800       -0.84800
H          2.88700        0.98700       -0.15000
H          2.72000       -1.35800        1.81800
H          2.63900        0.35900        2.25200
H          4.12200       -0.30600        1.55500
H          2.73700       -2.03800       -0.66500
H          4.17300       -1.05800       -0.82700
H          3.06900        0.28600       -2.64700
H          1.62500       -0.73500       -2.50600
H          4.24600       -1.61700       -3.12700
