15
123-08-0.pdb
O          2.24800        0.01900        0.01900
C          0.88500       -0.01500        0.01400
C          0.18900       -1.22100        0.00900
C         -1.20700       -1.20500       -0.00300
C         -1.89000        0.01600       -0.01000
C         -3.36600        0.03900       -0.03200
O         -4.03400       -0.98700       -0.04500
C         -1.18500        1.22300       -0.00000
C          0.21100        1.20300        0.01300
H          2.58400       -0.89300       -0.01000
H          0.70900       -2.17400        0.01400
H         -1.76000       -2.14200       -0.00900
H         -3.84400        1.03400       -0.03800
H         -1.70300        2.17800       -0.00400
H          0.77400        2.13300        0.02000
