22
123-19-3.pdb
C          0.92900        0.66200        0.17100
C          2.44900        0.64400        0.14500
C          3.03100        0.05700        1.42500
C          4.55100        0.05000        1.40000
O          5.18800       -0.05600        0.35300
C          5.26300        0.16900        2.73300
C          4.90000       -0.98200        3.66400
C          5.61000       -0.87100        5.00200
H          0.54300        1.09100       -0.75900
H          0.55600        1.26700        1.00400
H          0.52600       -0.35000        0.27200
H          2.82200        1.66600        0.00600
H          2.78500        0.06300       -0.72200
H          2.69000       -0.97500        1.57000
H          2.69800        0.65200        2.28300
H          5.00000        1.13700        3.17400
H          6.34300        0.17900        2.54500
H          5.15600       -1.93700        3.19000
H          3.81800       -1.00000        3.84200
H          6.69600       -0.89400        4.87500
H          5.32400       -1.70700        5.64800
H          5.34100        0.05900        5.51300
