15
123-30-8.pdb
N         -2.84200        0.00700        0.18800
C         -1.45300        0.00700        0.01100
C         -0.74000       -1.19600        0.03700
C          0.65800       -1.20200       -0.00300
C          1.34400        0.00600       -0.02600
O          2.70600        0.05100       -0.05500
C          0.65600        1.21200        0.00000
C         -0.74000        1.21000        0.04200
H         -3.29900       -0.83200       -0.15500
H         -3.29600        0.85300       -0.14000
H         -1.27100       -2.14200        0.09100
H          1.18400       -2.15000        0.00200
H          3.04500       -0.85900       -0.03400
H          1.20100        2.15000        0.00700
H         -1.26700        2.15800        0.09900
