42
1234-35-1.pdb
N          6.72700       -8.41600        0.22300
C          6.81800       -7.46700        1.16700
N          7.98500       -7.30000        1.78300
N          5.72500       -6.75500        1.46900
C          5.63000       -5.73600        2.52300
C          6.44100       -4.47900        2.24500
C          6.32300       -3.53200        3.44500
C          7.16600       -2.26400        3.31800
N          6.64800       -1.39900        2.23100
C          5.55400       -0.60700        2.50700
O          4.50000       -0.71000        1.89300
O          5.81600        0.27600        3.49400
C          4.74100        1.14100        3.88300
C          4.29200        0.88900        5.30800
C          5.19400        0.49800        6.30800
C          4.76500        0.33000        7.62800
C          3.43300        0.56300        7.96900
C          2.52900        0.96400        6.98800
C          2.95600        1.12900        5.66800
C          8.68800       -2.58400        3.17500
O          9.09900       -3.61300        3.78600
O          9.31000       -1.78500        2.41500
H          7.53000       -8.97600       -0.02800
H          5.85900       -8.60000       -0.26200
H          8.82400       -7.79100        1.51100
H          8.11600       -6.58600        2.49500
H          4.87000       -6.97500        0.97800
H          5.91100       -6.20600        3.47200
H          4.56900       -5.46900        2.60700
H          6.08100       -3.99900        1.32800
H          7.48800       -4.73100        2.05700
H          6.62500       -4.06900        4.35300
H          5.26900       -3.26200        3.58200
H          7.07200       -1.70500        4.25900
H          7.45300       -0.82000        1.98500
H          3.88400        1.06900        3.20300
H          5.11700        2.16800        3.82100
H          6.24000        0.32300        6.06600
H          5.47600        0.02700        8.39300
H          3.10400        0.44000        8.99700
H          1.49200        1.15800        7.25200
H          2.23600        1.45400        4.92000
