17
124-68-5.pdb
C          0.92700        0.09600        0.03100
C          2.46100        0.06200        0.01600
C          2.95300       -0.88500       -1.08400
N          2.93800        1.43600       -0.25300
C          3.01400       -0.39500        1.38800
O          2.67800        0.55000        2.40300
H          0.52400        0.40000       -0.94200
H          0.54200        0.79800        0.78000
H          0.51700       -0.89300        0.26300
H          2.57100       -0.59100       -2.06800
H          2.62000       -1.91200       -0.89200
H          4.04700       -0.89800       -1.14100
H          2.59400        1.74000       -1.16600
H          3.95600        1.43400       -0.32900
H          4.10600       -0.47500        1.36400
H          2.60900       -1.37000        1.67700
H          2.72400        1.41900        1.95300
