25
124-13-0.pdb
C          1.05900       -0.00600        0.00100
C          2.57700       -0.02000        0.00200
C          3.11100       -1.41100        0.33400
C          4.63600       -1.42900        0.33900
C          5.15900       -2.82500        0.67000
C          6.68200       -2.84700        0.67500
C          7.21500       -4.23500        1.00400
C          8.72200       -4.26300        1.01000
O          9.44100       -3.29600        0.78100
H          0.68800        0.99500       -0.23800
H          0.66500       -0.29200        0.98200
H          0.66300       -0.70400       -0.74400
H          2.94600        0.70600        0.73600
H          2.94500        0.29600       -0.98100
H          2.73700       -2.13400       -0.40100
H          2.73700       -1.72500        1.31600
H          5.01200       -0.70900        1.07600
H          5.01400       -1.11600       -0.64200
H          4.78200       -3.54500       -0.06600
H          4.78200       -3.13700        1.65200
H          7.06100       -2.12400        1.40900
H          7.06100       -2.53000       -0.30500
H          6.86700       -4.96600        0.26600
H          6.86700       -4.55700        1.99200
H          9.16700       -5.24700        1.24300
