47
124-10-7.pdb
C          1.02600        0.02300       -0.07800
C          2.54400        0.02900       -0.06800
C          3.07300        1.29900        0.58500
C          4.59600        1.30800        0.59500
C          5.11400        2.58200        1.24700
C          6.63500        2.59200        1.25500
C          7.15000        3.86400        1.90900
C          8.67100        3.87600        1.91500
C          9.18500        5.14900        2.57200
C         10.70600        5.16800        2.58000
C         11.22700        6.44300        3.23800
C         12.75000        6.44900        3.23800
C         13.32000        7.70400        3.88600
C         14.83100        7.65700        3.85900
O         15.49000        6.74700        3.38700
O         15.35700        8.77000        4.43600
C         16.78500        8.77500        4.43900
H          0.65400       -0.89100       -0.54800
H          0.63800        0.88000       -0.63700
H          0.63100        0.07100        0.94200
H          2.91700       -0.04500       -1.09600
H          2.91000       -0.85000        0.47500
H          2.69900        1.37300        1.61400
H          2.70300        2.17800        0.04300
H          4.97600        1.23800       -0.43200
H          4.97100        0.43400        1.14000
H          4.73700        2.65400        2.27500
H          4.74000        3.45800        0.70400
H          7.01200        2.52200        0.22700
H          7.01000        1.71600        1.79800
H          6.77300        3.93200        2.93700
H          6.77400        4.74000        1.36700
H          9.04700        3.80800        0.88700
H          9.04700        2.99800        2.45600
H          8.80700        5.21300        3.60000
H          8.80500        6.02400        2.03100
H         11.08100        5.10000        1.55100
H         11.08300        4.29000        3.11900
H         10.85200        6.50800        4.26700
H         10.84900        7.31900        2.69600
H         13.11300        6.36700        2.20500
H         13.11500        5.55900        3.76800
H         12.99400        7.77300        4.92800
H         12.99100        8.59300        3.34000
H         17.12500        9.70000        4.91800
H         17.17100        8.75400        3.41200
H         17.17100        7.92500        5.01400
