28
124-83-4.pdb
C          1.03900        0.00400       -0.12000
C          2.57700        0.09000       -0.08500
C          3.06900        0.21900       -1.54500
C          3.18400       -1.19300        0.59100
C          4.42300       -0.71000        1.36600
C          4.54100        0.79000        1.12900
C          3.11800        1.26800        0.80500
C          2.32000        1.45300        2.11700
C          3.14900        2.73700        0.27800
O          4.10000        3.46300        0.69700
O          2.18300        3.08400       -0.46300
C          3.39300       -2.46000       -0.27800
O          2.33100       -2.97800       -0.73700
O          4.57500       -2.89100       -0.39200
H          0.70000       -0.79600       -0.78700
H          0.59400        0.93800       -0.47900
H          0.61600       -0.20700        0.86800
H          2.74200       -0.63200       -2.15300
H          4.16000        0.27000       -1.61400
H          2.66000        1.11100       -2.02900
H          2.47300       -1.53600        1.36000
H          5.35800       -1.21200        1.10200
H          4.26600       -0.89400        2.43700
H          5.21800        0.97700        0.28600
H          4.97800        1.28800        2.00200
H          2.17800        0.50800        2.65100
H          1.32700        1.87900        1.92900
H          2.83300        2.13500        2.80700
