41
125-46-2.pdb
C          3.67700       -1.33800        0.42900
C          2.84400       -0.21200       -0.10200
O          1.61600       -0.28900       -0.08700
C          3.46600        1.08300       -0.54700
C          4.72200        1.06600       -1.32500
O          5.24700        0.10200       -1.85600
C          5.27600        2.43200       -1.44200
C          4.71700        3.42000       -0.69900
O          5.17900        4.69900       -1.00200
C          4.14800        5.55600       -0.78100
C          4.17100        6.92100       -1.12400
C          5.27200        7.63200       -1.86200
C          6.40900        6.93300       -2.55200
O          5.22000        8.86700       -1.93900
C          3.07700        7.69300       -0.69300
O          3.02500        9.05900       -0.85000
C          1.96800        7.10800       -0.06800
C          0.85700        7.97300        0.48100
C          1.95000        5.70800        0.11600
O          0.76800        5.15900        0.53300
C          3.07400        4.89000       -0.14700
C          3.50600        3.51500        0.48000
C          2.08400        3.03000        1.01900
C          3.81700        2.04600        0.57800
O          4.41400        1.61400        1.57900
H          3.02400       -2.19400        0.63800
H          4.15900       -1.04800        1.36500
H          4.41700       -1.66200       -0.30400
H          2.71900        1.54100       -1.21000
H          6.08000        2.58500       -2.15100
H          6.38200        5.84900       -2.49600
H          7.34700        7.29400       -2.11800
H          6.38200        7.20200       -3.61000
H          3.84800        9.36400       -1.29600
H          0.97400        9.03600        0.25000
H          0.84800        7.88900        1.57500
H         -0.11300        7.66000        0.08500
H          0.30200        5.76700        1.13000
H          1.74100        3.73700        1.78500
H          2.02400        2.11500        1.63800
H          1.34700        2.89700        0.21600
