42
125971-94-0.pdb
C          4.99900        2.27200       -1.39100
C          6.37300        1.76300       -1.84000
C          6.40800        1.35400       -3.31700
C          7.39500        2.89000       -1.62600
O          6.80500        0.66200       -0.99900
C          6.07900       -0.49100       -0.95500
O          5.03800       -0.71300       -1.55600
C          6.75300       -1.47300       -0.05200
C          6.46100       -2.92700       -0.44100
C          6.96700       -3.31600       -1.82900
C          8.40700       -3.83800       -1.80400
C          9.22000       -3.32500       -2.99800
C          8.64300       -3.80000       -4.32200
N          8.16500       -4.19300       -5.42000
O          9.06000       -3.41300       -0.60000
C          8.41800       -3.89200        0.58900
C          8.83000       -5.34000        0.87100
C          8.89100       -3.04300        1.77800
O          6.99000       -3.84900        0.52000
H          4.69200        3.14900       -1.96900
H          5.02200        2.54300       -0.33000
H          4.21800        1.51700       -1.49800
H          6.11600        2.18600       -3.96700
H          5.74400        0.51300       -3.53500
H          7.41600        1.02900       -3.60300
H          7.14500        3.77400       -2.22000
H          8.40700        2.56600       -1.90000
H          7.44200        3.18500       -0.57100
H          6.41700       -1.28600        0.97500
H          7.82800       -1.27100       -0.10000
H          5.37500       -3.06700       -0.42800
H          6.84600       -2.48600       -2.53300
H          6.33500       -4.12200       -2.22800
H          8.40100       -4.93400       -1.83700
H          9.26300       -2.22900       -2.99000
H         10.25700       -3.67200       -2.91500
H          9.91900       -5.43100        0.95100
H          8.50600       -6.01600        0.07400
H          8.37200       -5.70500        1.79800
H          9.95900       -3.19400        1.97300
H          8.32200       -3.27900        2.68400
H          8.77400       -1.97200        1.60200
