22
126-81-8.pdb
C          0.98300        0.05900       -0.01500
C          2.52300        0.04700       -0.06900
C          3.05800        0.41000        1.32700
C          3.03100        1.09200       -1.08200
C          2.70900        0.70000       -2.50900
O          2.29200        1.52800       -3.31700
C          3.07000       -0.69700       -2.92700
C          2.69400       -1.70600       -1.87900
O          2.24300       -2.81200       -2.17600
C          3.03500       -1.35500       -0.44600
H          0.60700        1.04300        0.28600
H          0.61000       -0.67400        0.71100
H          0.53400       -0.18200       -0.98400
H          2.71600        1.40400        1.63600
H          4.15400        0.41500        1.34400
H          2.71800       -0.31000        2.08100
H          4.12000        1.20500       -1.01600
H          2.58500        2.07300       -0.87900
H          4.15100       -0.74900       -3.09400
H          2.54800       -0.93800       -3.85600
H          4.12600       -1.41700       -0.35000
H          2.60200       -2.11700        0.21500
