36
126-87-4.pdb
C          3.06800       -8.61700       -4.66200
C          3.10000       -9.03900       -3.20400
C          3.83400       -8.01700       -2.32500
C          3.89800       -8.41900       -0.83900
C          4.61500       -9.75900       -0.65200
O          2.56400       -8.55400       -0.34600
C          4.57700       -7.35300       -0.06800
C          5.14900       -6.48500        0.54200
C          5.89300       -5.45300        1.29000
C          5.38800       -4.05600        0.92700
O          7.26800       -5.53500        0.92400
C          5.76600       -5.68000        2.81800
C          6.30200       -7.04100        3.27600
C          6.16100       -7.21500        4.77800
H          2.51700       -9.35700       -5.25000
H          4.08100       -8.54500       -5.07000
H          2.57500       -7.64700       -4.77900
H          3.59000      -10.01600       -3.15400
H          2.07200       -9.17100       -2.84700
H          3.31400       -7.05400       -2.41900
H          4.85000       -7.86500       -2.71300
H          4.64200      -10.05900        0.39900
H          5.64600       -9.71900       -1.02800
H          4.09100      -10.56900       -1.17100
H          2.63300       -8.80000        0.59100
H          5.96200       -3.28300        1.44700
H          4.33000       -3.92400        1.17300
H          5.51400       -3.86300       -0.14700
H          7.75000       -4.87000        1.44000
H          4.71400       -5.57800        3.12400
H          6.32900       -4.89700        3.34200
H          7.35700       -7.14300        3.00000
H          5.75600       -7.85000        2.78300
H          6.73900       -6.45900        5.31800
H          6.52800       -8.20300        5.07600
H          5.11400       -7.13500        5.08500
