39
126-58-9.pdb
O          3.04500        2.46400        1.24300
C          2.50900        1.37000        1.98900
C          2.85600        0.01800        1.32600
C          2.22500       -1.12500        2.14900
O          0.80600       -1.00900        2.21000
C          2.29900       -0.01900       -0.11400
O          2.94000        0.92800       -0.96400
C          4.38900       -0.17200        1.28300
O          4.90300       -0.20300        2.61900
C          6.33300       -0.27100        2.64800
C          6.80400       -0.22900        4.11800
C          6.16400       -1.38400        4.91900
O          6.50200       -2.66000        4.37800
C          8.34300       -0.34200        4.17000
O          8.81300       -1.53000        3.53800
C          6.37400        1.11900        4.73700
O          6.81800        1.25800        6.08200
H          2.86700        3.27100        1.75900
H          1.42600        1.51700        2.04000
H          2.90500        1.42500        3.01000
H          2.60800       -1.15600        3.17500
H          2.45000       -2.09400        1.69000
H          0.58000       -0.51400        3.01700
H          1.22300        0.18800       -0.13300
H          2.45000       -1.00700       -0.56200
H          2.99500        1.76600       -0.45500
H          4.87300        0.64200        0.73100
H          4.64200       -1.11800        0.78900
H          6.74900        0.57800        2.09200
H          6.65100       -1.19400        2.14800
H          5.07100       -1.30300        4.95400
H          6.51800       -1.38000        5.95500
H          5.89800       -2.82100        3.62900
H          8.71100       -0.34600        5.20200
H          8.81100        0.50500        3.65800
H          8.33900       -2.27700        3.96100
H          5.28600        1.25000        4.72300
H          6.80600        1.95100        4.17000
H          6.19400        0.78500        6.66000
