15
126-33-0.pdb
O          1.14600       -0.70700       -1.10800
S          0.58300        0.03200        0.00500
O          1.40700        0.69500        0.99000
C         -0.62300        1.18900       -0.63200
C         -1.97800        0.73800       -0.08900
C         -1.90500       -0.77100        0.13200
C         -0.58500       -1.02100        0.84700
H         -0.59400        1.14300       -1.72400
H         -0.37000        2.19700       -0.29500
H         -2.78800        1.00800       -0.77500
H         -2.17800        1.23800        0.86600
H         -1.91200       -1.28800       -0.83600
H         -2.75500       -1.13800        0.71600
H         -0.25900       -2.06100        0.79400
H         -0.63600       -0.69500        1.89000
