23
126456-43-7.pdb
N          2.84600        0.13100       -1.64600
C          2.34800        0.05100       -0.24700
C          3.06800        1.15600        0.58900
O          4.02700        1.82700       -0.25400
C          3.77500        0.47700        1.77900
C          3.58300       -0.98100        1.51100
C          4.10400       -2.02900        2.25500
C          3.78400       -3.33500        1.88100
C          2.94500       -3.57800        0.78500
C          2.42300       -2.51900        0.04200
C          2.75900       -1.22200        0.41100
H          2.76500        1.09700       -1.98200
H          2.39400       -0.52300       -2.29000
H          3.86000       -0.04600       -1.63100
H          1.26100        0.18300       -0.25400
H          2.35300        1.91200        0.93300
H          4.54000        2.43800        0.31500
H          3.28200        0.74100        2.72000
H          4.83800        0.73200        1.82900
H          4.74300       -1.85100        3.11600
H          4.18100       -4.17300        2.45200
H          2.69700       -4.60500        0.52200
H          1.76400       -2.72900       -0.79500
