23
127406-56-8.pdb
O          1.22500       -0.14700       -0.65300
C          2.25100       -0.10600        0.01200
C          3.05300       -1.31100        0.29400
C          2.65300       -2.55200       -0.20200
C          3.41700       -3.68800        0.07500
C          4.59000       -3.61100        0.85100
C          4.96300       -2.34400        1.34200
C          4.20800       -1.20000        1.06600
C          5.39700       -4.80600        1.16500
C          5.47900       -5.91000        0.31400
C          6.23900       -7.01200        0.69600
C          6.90200       -6.98900        1.91400
C          6.78500       -5.85700        2.69900
N          6.05700       -4.77400        2.35100
H          2.62600        0.84200        0.43200
H          1.74500       -2.64300       -0.79400
H          3.06700       -4.64500       -0.30700
H          5.85900       -2.24800        1.95400
H          4.53100       -0.24300        1.46500
H          4.96800       -5.92200       -0.64300
H          6.30800       -7.87900        0.04600
H          7.49900       -7.83100        2.24400
H          7.28400       -5.78700        3.66100
