18
1277-49-2.pdb
C          2.39400       -1.54600        0.27300
C          2.51600       -0.06400       -0.06800
O          1.21700        0.52200        0.10200
C          3.02500        0.19200       -1.50500
C          4.38000       -0.39800       -1.81900
C          5.23900        0.57600       -2.15900
C          4.56700        1.84900       -2.10900
C          3.29000        1.66300       -1.74700
H          3.36700       -2.04600        0.27900
H          1.73900       -2.06000       -0.44000
H          1.93900       -1.67000        1.26200
H          3.17800        0.41300        0.66500
H          0.61100        0.09000       -0.52400
H          2.28500       -0.15600       -2.23600
H          4.61600       -1.45100       -1.79700
H          6.27300        0.44800       -2.44400
H          5.03500        2.79500       -2.33400
H          2.54900        2.44000       -1.62500
