37
128-39-2.pdb
C          2.96300       -1.47700        0.77900
C          2.45100       -0.17600        0.10600
C          3.04800       -0.17400       -1.31900
C          0.91300       -0.31200        0.02200
C          2.83500        1.10900        0.88200
C          3.59500        1.04000        2.06300
C          3.94400        2.19000        2.76800
C          3.52800        3.44200        2.32400
C          2.74700        3.59500        1.16300
C          2.45300        2.40400        0.45200
O          1.79700        2.48100       -0.74600
C          2.31100        5.01500        0.72300
C          3.42500        5.60100       -0.16800
C          0.97000        5.06200       -0.04800
C          2.10500        5.98100        1.92400
H          2.66800       -2.36300        0.20400
H          2.55300       -1.60000        1.78800
H          4.05700       -1.49200        0.84700
H          2.80100       -1.10400       -1.84700
H          4.14000       -0.08900       -1.29000
H          2.67200        0.64000       -1.94400
H          0.62900       -1.24100       -0.48600
H          0.44200        0.50200       -0.53500
H          0.46300       -0.32900        1.02200
H          3.94300        0.09500        2.46600
H          4.54300        2.10700        3.67100
H          3.84300        4.29700        2.91400
H          2.34100        3.05800       -1.30900
H          3.57000        5.00500       -1.07600
H          4.38500        5.63100        0.36000
H          3.18700        6.62500       -0.47800
H          1.04500        4.66600       -1.06400
H          0.61900        6.09400       -0.17200
H          0.18700        4.50900        0.48400
H          3.02600        6.16000        2.48900
H          1.34800        5.59500        2.61400
H          1.77100        6.96600        1.58200
