28
128-95-0.pdb
N          1.00900        0.15400       -0.30100
C          2.39500        0.05800       -0.08300
C          3.13900        1.24000       -0.09500
C          4.53100        1.20800       -0.04800
C          5.22500       -0.00600       -0.06300
N          6.61500        0.03600        0.14600
C          4.48700       -1.21200       -0.05900
C          5.19300       -2.52400       -0.09400
O          6.41500       -2.59000       -0.18200
C          4.41000       -3.77600       -0.07200
C          5.07100       -5.01400       -0.07000
C          4.33600       -6.20200       -0.06700
C          2.94400       -6.16100       -0.06800
C          2.28600       -4.93100       -0.06600
C          3.02400       -3.73700       -0.06600
C          2.31300       -2.44900       -0.04500
O          1.08900       -2.45200        0.04700
C          3.08300       -1.17800       -0.08400
H          0.56100        0.97100        0.09900
H          0.52000       -0.71800       -0.06300
H          2.63400        2.20200       -0.13300
H          5.07600        2.14900       -0.00800
H          7.08900        0.83900       -0.25300
H          7.07100       -0.85300       -0.09700
H          6.15900       -5.05800       -0.07100
H          4.85100       -7.16000       -0.06600
H          2.36800       -7.08400       -0.06800
H          1.19800       -4.90600       -0.06400
