26
129-00-0.pdb
C         -3.51100       -0.04100        0.00700
C         -2.82800        1.17600        0.01100
C         -1.42600        1.20900        0.00200
C         -0.72100        2.42100       -0.00500
C          0.67600        2.43500       -0.00700
C          1.40600        1.23800       -0.00300
C          2.80900        1.23400        0.00000
C          3.51700        0.03200        0.00100
C          2.83200       -1.18300       -0.00100
C          1.43000       -1.21200       -0.00300
C          0.72700       -2.42300       -0.00500
C         -0.67000       -2.43700       -0.00600
C         -1.39900       -1.24100       -0.00300
C         -2.80100       -1.24100       -0.00200
C         -0.70500       -0.00800       -0.00100
C          0.71100        0.00600       -0.00200
H         -4.59700       -0.05400        0.01200
H         -3.40100        2.10000        0.02100
H         -1.25500        3.36800       -0.01000
H          1.19200        3.39300       -0.01300
H          3.36200        2.17000        0.00300
H          4.60300        0.04200        0.00300
H          3.40200       -2.10900       -0.00200
H          1.26200       -3.37100       -0.00600
H         -1.18500       -3.39600       -0.00800
H         -3.35100       -2.17900       -0.00800
