28
129-44-2.pdb
N          1.12000        0.24800       -0.17200
C          2.50700        0.14900        0.04000
C          3.25800        1.33300        0.02400
C          4.65100        1.29900        0.05600
C          5.31300        0.07400        0.06800
C          4.58400       -1.12300        0.05500
C          5.31600       -2.41000        0.07500
O          6.54300       -2.39800        0.16200
C          4.56500       -3.68700        0.03300
C          5.23300       -4.93300        0.03700
N          6.61900       -5.05000       -0.17200
C          4.47100       -6.11100        0.01800
C          3.07900       -6.06900        0.04900
C          2.42700       -4.84000        0.06300
C          3.16800       -3.65000        0.05300
C          2.43700       -2.36900        0.07500
O          1.21200       -2.37900        0.16500
C          3.18700       -1.09000        0.03500
H          0.67500        1.06300        0.23700
H          0.63100       -0.62600        0.05500
H          2.75400        2.29600       -0.02700
H          5.21800        2.22700        0.05100
H          6.40200        0.05700        0.08100
H          7.12200       -4.18400        0.06300
H          7.05100       -5.87600        0.22900
H          4.96500       -7.07800       -0.03400
H          2.50300       -6.99100        0.04400
H          1.33900       -4.81300        0.07700
