29
13021-15-3.pdb
C          0.90200        0.21000       -0.04300
N          2.35000        0.05200        0.00200
C          3.02300        0.86000        1.01100
C          3.04500       -0.90000       -0.76700
C          2.64800       -1.22800       -2.09500
C          1.50100       -0.59300       -2.84300
C          3.34900       -2.19800       -2.86300
C          4.48700       -2.82600       -2.37800
C          5.25400       -3.80800       -3.21300
C          4.91500       -2.50800       -1.10000
C          4.20900       -1.58500       -0.27900
C          4.79200       -1.43800        1.10300
H          0.53900        0.78100        0.82400
H          0.38100       -0.75500       -0.02000
H          0.57400        0.79500       -0.90100
H          2.44500        1.76500        1.24400
H          4.00000        1.21400        0.66100
H          3.11600        0.31600        1.95300
H          1.42000        0.47700       -2.63300
H          0.56800       -1.11700       -2.62200
H          1.66300       -0.63300       -3.92900
H          3.00300       -2.43500       -3.87300
H          4.79500       -3.95000       -4.19500
H          5.29000       -4.78200       -2.71400
H          6.27600       -3.44900       -3.37100
H          5.80400       -2.99800       -0.71400
H          5.58400       -2.16800        1.29100
H          4.03000       -1.62400        1.86300
H          5.26100       -0.45800        1.23400
