25
13026-12-5.pdb
O          1.63200       -1.42600        0.17400
C          2.68900       -0.59900        0.18400
O          3.04800        0.01300        1.17600
C          3.36500       -0.52100       -1.13100
C          4.44100        0.27000       -1.26500
C          5.21500        0.39900       -2.51600
C          4.82700        1.38700       -3.43500
C          5.50900        1.54500       -4.63900
C          6.59800        0.72800       -4.93500
C          7.03500       -0.24300       -4.02300
C          8.16100       -1.02800       -4.32400
C          8.62400       -1.99000       -3.42900
C          7.96300       -2.18300       -2.22400
C          6.83700       -1.41500       -1.91200
C          6.34500       -0.42400       -2.79500
H          1.43800       -1.86900       -0.67100
H          2.98900       -1.11600       -1.95700
H          4.81700        0.85500       -0.42600
H          3.99500        2.05200       -3.21500
H          5.20100        2.30800       -5.34800
H          7.11400        0.86300       -5.88400
H          8.69400       -0.89000       -5.26200
H          9.50000       -2.58400       -3.67400
H          8.32100       -2.93000       -1.52000
H          6.34900       -1.59300       -0.95700
