25
13020-57-0.pdb
O          1.74300       -0.30700       -1.61100
C          0.63300       -0.19000       -0.82800
C          0.17400       -1.25700       -0.06100
C         -0.96400       -1.09600        0.73000
C         -1.63900        0.12600        0.74400
C         -1.18700        1.18700       -0.05300
C         -0.03100        1.03200       -0.82500
C         -1.88300        2.50000       -0.08000
O         -1.21800        3.52400       -0.20100
C         -3.36400        2.60400        0.03000
C         -4.21700        1.59200       -0.43000
C         -5.60200        1.73300       -0.30600
C         -6.13900        2.89300        0.25000
C         -5.29500        3.91600        0.68200
C         -3.91100        3.77500        0.57000
H          2.09400       -1.20900       -1.52800
H          0.69200       -2.21200       -0.06000
H         -1.32300       -1.92100        1.34000
H         -2.50800        0.23900        1.38700
H          0.34800        1.85600       -1.42400
H         -3.82600        0.69400       -0.89900
H         -6.26100        0.94300       -0.65500
H         -7.21700        3.00600        0.33500
H         -5.71400        4.82800        1.10000
H         -3.25900        4.58000        0.90200
