7
13031-32-8.pdb
C          0.98900       -0.09200       -0.00700
N          0.50700        0.34900       -1.29200
O         -0.24900       -0.44100       -2.02300
O          0.79400        1.43400       -1.69700
H          0.62900       -1.12000        0.21000
H          0.62100        0.59200        0.78700
H          2.10000       -0.09400       -0.00300
