19
13031-41-9.pdb
C          1.02600       -0.15800        0.25700
C          2.49500        0.13500        0.30400
O          2.96800        1.26300        0.32700
O          3.19900       -1.07100        0.28300
C          4.60800       -1.09200        0.33600
C          5.35700       -0.17700        1.07400
C          6.75000       -0.28000        1.09200
C          7.38700       -1.31200        0.39600
C          6.62700       -2.24800       -0.31600
C          5.23500       -2.13800       -0.34400
C          8.81600       -1.41100        0.41700
N          9.97500       -1.48900        0.43900
H          0.47000        0.77500        0.38400
H          0.75200       -0.83200        1.07200
H          0.76700       -0.59500       -0.71000
H          4.88100        0.62200        1.63600
H          7.32900        0.45000        1.65300
H          7.11200       -3.06100       -0.85200
H          4.64400       -2.86600       -0.89500
