42
13036-81-2.pdb
C          0.68300       -1.65000        0.90200
C          2.19400       -1.73600        1.05900
C          2.92700       -1.34800       -0.23800
N          4.40000       -1.39700       -0.20300
C          4.90100       -2.73400        0.08400
N          6.35500       -2.77200        0.00100
C          6.83200       -2.83100       -1.38300
C          8.35900       -2.90300       -1.52800
C          8.78200       -2.84300       -2.98900
C          6.92900       -1.76200        0.87900
N          6.39600       -0.42000        0.68800
C          6.98500        0.30800       -0.43400
C          6.58300        1.78400       -0.56900
C          6.87000        2.61400        0.67000
C          4.94700       -0.44900        0.75500
H          0.19200       -1.96800        1.82800
H          0.33400       -2.29800        0.09300
H          0.36800       -0.62400        0.68700
H          2.44600       -2.76000        1.35100
H          2.48800       -1.07800        1.88300
H          2.62000       -0.33400       -0.53000
H          2.58000       -1.99600       -1.05200
H          4.47000       -3.46300       -0.61500
H          4.60400       -3.07600        1.08600
H          6.43500       -2.01500       -1.99400
H          6.42900       -3.74500       -1.84000
H          8.72900       -3.83100       -1.07800
H          8.85300       -2.07200       -1.01700
H          8.33700       -3.65800       -3.56500
H          9.87100       -2.91900       -3.06900
H          8.47900       -1.89100       -3.43900
H          8.02400       -1.76400        0.86800
H          6.70400       -2.06300        1.91300
H          6.75500       -0.15600       -1.39400
H          8.07800        0.28200       -0.33000
H          5.52300        1.86900       -0.83600
H          7.14000        2.21300       -1.41200
H          6.31000        2.25100        1.53700
H          6.57900        3.65400        0.49600
H          7.93700        2.59700        0.91300
H          4.53200        0.55100        0.59100
H          4.66000       -0.70600        1.78300
