21
13050-47-0.pdb
C          2.45200       -0.06200       -0.00500
C          0.95200       -0.02700        0.00200
C          0.26000        1.18900        0.02600
C         -1.13600        1.21000        0.01900
C         -1.85600        0.01400       -0.00800
C         -1.17600       -1.21000       -0.02500
C          0.22600       -1.22500       -0.02800
C         -1.90200       -2.50800       -0.09200
O         -1.38700       -3.48900       -0.62200
N         -3.16400       -2.53900        0.49200
N         -3.86500       -3.76500        0.53500
H          2.87800        0.94700        0.01500
H          2.81400       -0.56000       -0.91100
H          2.82100       -0.60000        0.87300
H          0.80400        2.13200        0.03800
H         -1.66100        2.16100        0.02100
H         -2.94000        0.05900       -0.05200
H          0.75200       -2.17900       -0.05500
H         -3.44900       -1.79900        1.13000
H         -3.20200       -4.49100        0.22200
H         -4.56900       -3.74800       -0.20700
