18
13080-90-5.pdb
O          1.36600       -0.14900        1.07600
C          2.61900       -0.11500        0.39800
C          2.64500        1.03700       -0.64900
C          2.74800        0.27100       -1.98900
C          1.91100       -0.97700       -1.69400
C          2.76200       -1.38000       -0.48100
C          4.12500       -1.36300       -1.13600
C          4.11600       -0.37600       -2.04500
H          1.14600        0.75900        1.34200
H          3.41400       -0.01600        1.14300
H          3.51200        1.69000       -0.49400
H          1.73500        1.64400       -0.61000
H          2.46500        0.82800       -2.87900
H          1.92900       -1.71700       -2.50400
H          0.86900       -0.74900       -1.44300
H          2.46500       -2.32600       -0.02600
H          4.95700       -2.00400       -0.88500
H          4.93400       -0.06200       -2.66800
