20
131-91-9.pdb
O          3.43500       -0.59800        0.11600
C          2.12500       -0.18800        0.05100
C          1.86200        1.17800        0.01200
C          0.54300        1.62300       -0.01300
C         -0.52800        0.71800       -0.00400
C         -1.84800        1.20300       -0.01500
C         -2.93400        0.33000       -0.00900
C         -2.71500       -1.04000        0.00600
C         -1.40900       -1.53800        0.02100
C         -0.27900       -0.67900        0.02200
C          1.07600       -1.13500        0.04900
N          1.34200       -2.49500        0.13900
O          2.06600       -2.90800       -0.77500
H          4.02500        0.16500        0.01100
H          2.66500        1.90900        0.01500
H          0.35500        2.69500       -0.03200
H         -2.04200        2.27400       -0.02800
H         -3.94800        0.72300       -0.01600
H         -3.55800       -1.72700        0.00800
H         -1.27800       -2.61900        0.02700
