29
131-57-7.pdb
C          1.08800       -0.00100        0.07800
O          2.51000        0.00200        0.08900
C          3.13000        1.22000        0.05400
C          2.49200        2.46200        0.03800
C          3.24300        3.64300       -0.00400
C          4.64200        3.58800       -0.05900
C          5.27600        2.34100       -0.00700
O          6.63900        2.20100       -0.00900
C          4.52600        1.16700        0.04000
C          5.46500        4.82300       -0.15000
O          6.58900        4.81300        0.35100
C          4.99500        6.03300       -0.86800
C          4.18700        5.94600       -2.00800
C          3.78300        7.10700       -2.67000
C          4.20500        8.35400       -2.21200
C          5.03400        8.44500       -1.09300
C          5.43200        7.28700       -0.42200
H          0.75400       -1.04300        0.08800
H          0.69800        0.46600       -0.83300
H          0.68700        0.48600        0.97400
H          1.41100        2.54800        0.06500
H          2.71900        4.59300        0.00900
H          7.03000        3.08900        0.15100
H          5.03400        0.20600        0.06800
H          3.87800        4.98400       -2.40800
H          3.15300        7.03800       -3.55400
H          3.90000        9.25700       -2.73500
H          5.37600        9.41700       -0.74700
H          6.08900        7.36500        0.44300
