28
131-55-5.pdb
O          2.38000       -0.99000       -0.08800
C          1.20300       -0.30600       -0.00700
C          1.10400        0.86800        0.73500
C         -0.11600        1.54900        0.78100
C         -1.21700        1.08300        0.04500
C         -1.10600       -0.12500       -0.65600
O         -2.15100       -0.68000       -1.34700
C          0.10400       -0.81600       -0.68800
C         -2.48700        1.85200       -0.02300
O         -3.54000        1.22600       -0.14500
C         -2.53100        3.34200        0.02300
C         -3.65400        3.94500        0.61100
C         -3.75300        5.33800        0.68400
C         -2.72600        6.12300        0.17100
O         -2.77000        7.48400        0.22700
C         -1.61700        5.54400       -0.43500
C         -1.52900        4.15700       -0.52700
O         -0.46700        3.60900       -1.18800
H          3.05500       -0.52000        0.42700
H          1.95900        1.27300        1.26600
H         -0.18100        2.46500        1.36200
H         -2.96100       -0.17600       -1.11000
H          0.18900       -1.74400       -1.25100
H         -4.45900        3.32900        1.00800
H         -4.63100        5.78500        1.13900
H         -3.61100        7.75600        0.63100
H         -0.84400        6.18900       -0.84400
H          0.17400        4.30300       -1.41100
