20
13110-96-8.pdb
C          3.16400        0.41800        1.40600
C          2.66700       -0.01300        0.05000
O          1.66300        0.49500       -0.44800
C          3.41700       -1.07100       -0.68800
C          2.95900       -1.47000       -1.94600
C          3.63100       -2.47100       -2.65000
C          4.76600       -3.08000       -2.10000
O          5.33400       -4.10600       -2.79700
C          5.26000       -2.68900       -0.85200
C          4.56000       -1.67600       -0.15700
C          6.50100       -3.26600       -0.19700
O          7.43000       -3.72100       -0.93200
O          6.54400       -3.18300        1.07500
H          2.48900        1.17800        1.81000
H          4.16000        0.86000        1.32000
H          3.16900       -0.42900        2.09700
H          2.07100       -1.01600       -2.37700
H          3.24600       -2.78700       -3.61400
H          5.14400       -3.99600       -3.73800
H          4.94900       -1.38600        0.81800
