28
13139-12-3.pdb
C          3.02000        0.00800       -1.70600
C          2.75600       -0.06100       -0.19500
C          3.30800        1.15800        0.54200
C          1.23400       -0.13600        0.01200
O          3.26500       -1.27300        0.40800
C          4.54900       -1.65700        0.21600
O          5.44600       -1.01400       -0.30500
O          4.63600       -2.96800        0.57900
N          5.41700       -3.69400       -0.31700
C          6.33600       -4.59800        0.09700
O          6.70200       -4.84100        1.23400
C          6.81900       -5.32600       -1.13000
C          5.88400       -4.87200       -2.24500
C          5.00100       -3.84900       -1.60200
O          4.05100       -3.31500       -2.15200
H          2.54100        0.88700       -2.15100
H          2.63600       -0.88500       -2.21100
H          4.08600        0.06800       -1.94200
H          2.87800        2.08700        0.15500
H          4.39700        1.22400        0.45000
H          3.08900        1.09300        1.61300
H          0.72800        0.75800       -0.36600
H          0.98600       -0.25800        1.07200
H          0.81700       -1.01000       -0.50300
H          6.74500       -6.40700       -0.98000
H          7.85600       -5.05400       -1.34400
H          5.25900       -5.70000       -2.59800
H          6.42700       -4.43400       -3.08600
