41
13139-14-5.pdb
C          1.99600        0.37400       -4.77100
C          1.72700        0.21500       -3.26600
C          1.79800        1.56300       -2.53000
C          0.29400       -0.32500       -3.10900
O          2.62100       -0.77600       -2.68100
C          3.95900       -0.54200       -2.72700
O          4.47000        0.49000       -3.14800
N          4.67400       -1.60100       -2.24500
C          6.11300       -1.71600       -2.58700
C          6.94500       -2.38500       -1.48200
C          6.92000       -1.60000       -0.20000
C          6.07500       -1.82500        0.86800
N          6.27100       -0.83300        1.78300
C          7.22100        0.05500        1.33500
C          7.67500        1.25400        1.89700
C          8.62500        1.98700        1.17900
C          9.13200        1.51300       -0.02900
C          8.68100        0.30300       -0.56700
C          7.68300       -0.42800        0.11100
C          6.38100       -2.60500       -3.83200
O          5.51400       -3.51200       -4.03000
O          7.43200       -2.34600       -4.48000
H          1.27800        1.05900       -5.23300
H          1.92900       -0.59500       -5.27900
H          2.99500        0.76500       -4.98100
H          1.15400        2.30900       -3.00900
H          2.80700        1.98000       -2.49800
H          1.48000        1.45400       -1.48700
H         -0.44100        0.36700       -3.53700
H          0.04100       -0.48100       -2.05400
H          0.17900       -1.29500       -3.60600
H          4.17400       -2.48000       -2.24900
H          6.50500       -0.71200       -2.78900
H          7.99200       -2.49300       -1.80300
H          6.58200       -3.40300       -1.29000
H          5.31000       -2.57500        1.01200
H          5.74800       -0.72300        2.63900
H          7.27600        1.62600        2.83400
H          8.96000        2.94700        1.56200
H          9.86400        2.09900       -0.57800
H          9.06300       -0.05100       -1.52200
