29
13139-17-8.pdb
O          2.95900       -0.92900        0.42800
C          2.33300       -0.08100       -0.19100
O          2.83800        0.87700       -1.00400
C          4.25700        0.89200       -1.20100
C          4.67900        0.53100       -2.61200
C          3.80500        0.56400       -3.70300
C          4.26700        0.31200       -5.00100
C          5.61400        0.02600       -5.22500
C          6.49500       -0.01500       -4.15100
C          6.03300        0.23600       -2.85500
O          0.97300        0.03100       -0.22200
N          0.33600       -1.20000       -0.05500
C         -0.70800       -1.34800        0.79300
O         -1.17000       -0.55100        1.59700
C         -1.28000       -2.72100        0.52200
C         -0.76900       -3.05800       -0.87400
C          0.28000       -2.02200       -1.13800
O          0.88100       -1.89900       -2.19600
H          4.78000        0.25900       -0.47500
H          4.57200        1.92700       -1.02200
H          2.75000        0.79400       -3.56100
H          3.57500        0.34800       -5.84000
H          5.97100       -0.15600       -6.23600
H          7.54700       -0.23500       -4.32200
H          6.74600        0.20900       -2.03300
H         -2.37300       -2.70900        0.54600
H         -0.90500       -3.43200        1.26600
H         -1.56300       -2.93200       -1.61900
H         -0.35400       -4.06600       -0.93800
