16
13173-09-6.pdb
O          1.33200       -0.35200        0.95600
C          2.39400        0.03600        0.51900
C          3.25000        1.30600        0.72800
C          3.97400        0.92400       -0.59800
C          5.44000        0.76700       -0.52000
C          5.75200       -0.49300       -0.18800
C          4.55300       -1.37500        0.01500
C          3.39500       -0.52500       -0.50900
H          3.85100        1.25800        1.64300
H          2.68800        2.24300        0.70400
H          3.63500        1.49200       -1.47100
H          6.15100        1.55600       -0.72700
H          6.76700       -0.85400       -0.07900
H          4.44200       -1.61900        1.07700
H          4.65200       -2.30400       -0.55600
H          2.94100       -0.88900       -1.43600
