28
13179-98-1.pdb
C          0.88300        2.28800       -0.85600
O          2.30100        2.22100       -0.82500
C          2.76900        1.34200        0.19500
C          4.29400        1.34900        0.20100
C          4.86200        2.73700        0.50900
C          6.39100        2.72300        0.50600
C          6.95900        4.11700        0.79300
C          8.48400        4.12400        0.79100
O          8.95500        3.73900       -0.49900
C         10.37300        3.69200       -0.55300
H          0.58800        2.99000       -1.64200
H          0.49500        2.65200        0.10000
H          0.45800        1.30500       -1.08600
H          2.40800        0.32700       -0.00600
H          2.38600        1.66700        1.17000
H          4.65900        1.02600       -0.78200
H          4.65500        0.62700        0.94300
H          4.49800        3.07400        1.48700
H          4.50700        3.45900       -0.23500
H          6.74700        2.36700       -0.46700
H          6.75500        2.01700        1.26200
H          6.59700        4.47400        1.76400
H          6.59500        4.81200        0.02500
H          8.86600        3.43100        1.54900
H          8.84600        5.13300        1.02200
H         10.66900        3.37200       -1.55500
H         10.76100        2.97000        0.17300
H         10.79700        4.68200       -0.36100
