51
131833-93-7.pdb
C          2.93500        0.42000        0.95400
C          3.68600       -0.10900       -0.28100
C          2.98200        0.41600       -1.54800
C          5.11700        0.47200       -0.26200
C          3.76600       -1.66700       -0.32400
C          2.44800       -2.42900       -0.34900
O          2.35700       -3.06000        0.92200
C          3.57700       -2.90900        1.47900
N          4.45500       -2.17200        0.87600
C          3.78200       -3.58900        2.81200
C          5.23600       -3.38400        3.27200
C          2.83500       -2.92800        3.82400
C          3.54200       -5.07600        2.77200
N          3.19700       -5.79700        3.79600
C          3.29900       -7.19200        3.31800
C          3.39800       -7.04500        1.80700
O          3.80600       -5.70000        1.60000
C          4.49900       -7.90200        4.02700
C          4.26900       -7.91200        5.55500
C          4.60000       -9.37000        3.56600
C          5.84500       -7.20900        3.74300
H          2.91800        1.51700        0.95800
H          3.41400        0.10500        1.88700
H          1.89500        0.07900        0.97600
H          3.00800        1.51100       -1.58900
H          1.93000        0.11700       -1.58500
H          3.47100        0.04000       -2.45500
H          5.10200        1.56600       -0.33700
H          5.71100        0.09200       -1.10000
H          5.64400        0.21800        0.66500
H          4.34900       -1.95400       -1.20900
H          2.46400       -3.21400       -1.11500
H          1.56500       -1.80900       -0.51600
H          5.48100       -2.31900        3.36800
H          5.94200       -3.82200        2.55700
H          5.42100       -3.85400        4.24400
H          2.96500       -1.84000        3.83900
H          3.01100       -3.29800        4.84100
H          1.78600       -3.13200        3.58100
H          2.37600       -7.73000        3.56800
H          2.42100       -7.18000        1.32800
H          4.10800       -7.72400        1.32800
H          3.34800       -8.44600        5.81300
H          4.19500       -6.89800        5.96200
H          5.09700       -8.41000        6.07400
H          3.67800       -9.91900        3.78800
H          5.42200       -9.88500        4.07700
H          4.79000       -9.45300        2.49200
H          5.85700       -6.18600        4.12800
H          6.06500       -7.17200        2.67100
H          6.67200       -7.74000        4.22800
