11
13183-79-4.pdb
C          1.07400       -0.02000       -0.03900
N          2.49200       -0.07100       -0.33200
N          3.23800        0.98700        0.13500
N          4.53200        0.56700        0.28500
N          4.57700       -0.68900        0.14800
C          3.31500       -1.16000       -0.17400
S          2.86300       -2.76300       -0.31300
H          0.71200        1.01100       -0.11700
H          0.89200       -0.41000        0.96700
H          0.54100       -0.64000       -0.76500
H          3.17400        1.86500       -0.38000
