38
131980-30-8.pdb
C          1.68200       -3.56100       -2.87700
C          1.60600       -2.47400       -1.79800
C          1.72400       -1.06800       -2.40300
C          0.23200       -2.58500       -1.11200
O          2.58800       -2.68100       -0.74700
C          3.91900       -2.63300       -1.02700
O          4.39700       -2.46700       -2.14100
N          4.63500       -2.74700        0.12700
C          6.07600       -3.08900        0.10900
C          6.84200       -2.48400        1.30000
C          6.75300       -0.97600        1.46000
C          6.68600       -0.43000        2.75200
C          6.53900        0.94400        2.94200
C          6.49800        1.79400        1.84000
C          6.64200        1.27400        0.55000
C          6.76900       -0.10800        0.36100
C          6.67300        2.16300       -0.57100
N          6.71600        2.92500       -1.45000
C          6.33900       -4.61300        0.29600
O          5.43000       -5.23000        0.93100
O          7.43400       -5.04100       -0.16600
H          0.87500       -3.44700       -3.60900
H          1.60400       -4.55900       -2.43000
H          2.62800       -3.53700       -3.42500
H          0.92500       -0.88100       -3.13000
H          2.67500       -0.92000       -2.92100
H          1.66700       -0.30200       -1.62200
H         -0.58200       -2.29700       -1.78900
H          0.18100       -1.95200       -0.22000
H          0.04200       -3.61200       -0.77700
H          4.12300       -3.20500        0.87200
H          6.50900       -2.76900       -0.84600
H          7.90800       -2.74100        1.23800
H          6.47000       -2.94200        2.22800
H          6.73100       -1.08500        3.62000
H          6.45200        1.34400        3.94800
H          6.36400        2.86300        1.99400
H          6.86700       -0.50600       -0.64800
