30
132-60-5.pdb
O          1.04100       -0.02200        0.17000
C          2.38500        0.06200        0.14300
O          3.01500        0.85100        0.82900
C          3.05000       -0.95600       -0.70500
C          4.19000       -1.54000       -0.14100
C          4.89000       -2.48700       -0.86600
N          4.45900       -2.88600       -2.08500
C          3.38000       -2.31500       -2.64200
C          3.00400       -2.73600       -3.91400
C          1.90700       -2.19300       -4.58000
C          1.17000       -1.18300       -3.97900
C          1.53700       -0.72800       -2.71300
C          2.62500       -1.31000       -2.00700
C          6.15300       -3.09200       -0.38900
C          6.52100       -4.39800       -0.76200
C          7.73200       -4.96200       -0.34800
C          8.60800       -4.22900        0.44800
C          8.26900       -2.93800        0.83700
C          7.05600       -2.37700        0.42300
H          0.66500       -0.79600       -0.28900
H          4.51500       -1.24500        0.85300
H          3.59700       -3.50500       -4.40500
H          1.64300       -2.54800       -5.57300
H          0.32300       -0.74100       -4.49700
H          0.97100        0.10400       -2.29800
H          5.85700       -4.98800       -1.39300
H          7.99400       -5.97100       -0.65700
H          9.55600       -4.66000        0.75800
H          8.95100       -2.35700        1.45200
H          6.84100       -1.35400        0.72500
