21
132-65-0.pdb
S          0.00400       -1.84200       -0.00900
C         -1.24500       -0.66700        0.00100
C         -2.63300       -0.91200        0.02700
C         -3.51300        0.17100        0.04800
C         -3.03000        1.47000        0.03000
C         -1.65200        1.70700       -0.00700
C         -0.72800        0.62900       -0.01500
C          0.72300        0.63200       -0.02200
C          1.64300        1.71600       -0.03000
C          3.02100        1.48400       -0.00100
C          3.51100        0.18900        0.03400
C          2.63600       -0.89900        0.02900
C          1.24700       -0.66100        0.00100
H         -3.01400       -1.93000        0.04000
H         -4.58500       -0.00900        0.08100
H         -3.72100        2.30800        0.04800
H         -1.29000        2.73200       -0.01800
H          1.27500        2.73700       -0.05200
H          3.70900        2.32600       -0.00100
H          4.58500        0.01400        0.06400
H          3.02200       -1.91400        0.05500
