19
13200-83-4.pdb
O          2.93900        0.54200        1.30400
C          2.58900       -0.13900        0.18700
O          1.94800       -1.18100        0.23000
C          3.15300        0.45900       -1.09600
C          4.49000       -0.21200       -1.40400
C          5.19600        0.78900       -2.30700
C          4.70400        2.14800       -1.82500
N          3.52700        1.87200       -1.01100
C          2.59700        2.87600       -0.81600
O          2.78300        4.05900       -1.06100
H          3.53200        1.29700        1.08500
H          2.42400        0.35200       -1.90600
H          4.37300       -1.19500       -1.87200
H          5.07900       -0.35100       -0.48800
H          4.89700        0.62400       -3.34900
H          6.28700        0.70500       -2.25700
H          4.42600        2.78100       -2.68000
H          5.43800        2.68000       -1.21900
H          1.67700        2.51600       -0.32600
