30
13254-34-7.pdb
C          2.80300       -2.77800        1.21600
C          2.31000       -2.54200       -0.21200
C          0.78400       -2.54200       -0.24900
C          2.87000       -1.23100       -0.80000
C          4.40100       -1.15800       -0.86000
C          5.02500       -2.26500       -1.72000
C          6.56500       -2.26100       -1.76800
C          7.12500       -0.95500       -2.32500
C          7.17700       -2.57300       -0.40100
O          6.96900       -3.32200       -2.64400
H          2.40000       -3.71900        1.61200
H          2.48800       -1.96800        1.88200
H          3.89300       -2.85500        1.26100
H          2.63900       -3.38300       -0.83200
H          0.36800       -1.69300        0.30500
H          0.38800       -3.46200        0.19300
H          0.42100       -2.48700       -1.28100
H          2.51200       -0.38300       -0.20100
H          2.46900       -1.08400       -1.81100
H          4.80800       -1.18300        0.15500
H          4.67100       -0.17900       -1.27200
H          4.62800       -2.18900       -2.74100
H          4.70700       -3.25200       -1.36400
H          6.92800       -0.10700       -1.66200
H          6.69400       -0.73600       -3.30800
H          8.20900       -1.02800       -2.47000
H          6.97900       -1.78700        0.33300
H          8.26400       -2.69600       -0.48200
H          6.79000       -3.52000       -0.00800
H          6.60100       -3.14000       -3.52500
