21
13252-83-0.pdb
C          0.86900        0.08900       -0.07400
C          2.36800        0.08600        0.00500
C          3.09700        1.28300       -0.00100
C          4.49200        1.26700        0.09800
C          5.16800        0.05200        0.18600
O          6.53800        0.09600        0.26500
C          7.23200       -1.10000        0.25100
C          6.65800       -2.30600        0.22800
C          5.19200       -2.40800        0.22800
O          4.63000       -3.49700        0.25000
C          4.45000       -1.14100        0.18000
C          3.05400       -1.13100        0.10600
O          8.60700       -1.01700        0.26100
H          0.48000        1.09200       -0.27600
H          0.44400       -0.25900        0.87200
H          0.53200       -0.56800       -0.88300
H          2.58200        2.23900       -0.08600
H          5.04400        2.20300        0.09800
H          7.22700       -3.22600        0.21000
H          2.50700       -2.07200        0.11400
H          8.79900       -0.06300        0.28800
