15
13269-19-7.pdb
N          2.37700       -0.04000        0.21100
C          0.98600       -0.05600        0.00000
C          0.33300        1.18600        0.02400
C         -1.05600        1.27200       -0.01600
C         -1.78200        0.09800       -0.05100
N         -1.21600       -1.12300       -0.04500
C          0.15500       -1.20500        0.00200
N          0.80400       -2.55200        0.00800
O          2.04200       -2.63100       -0.04800
O          0.05200       -3.53800        0.03300
H          2.86600        0.76700       -0.16500
H          2.84400       -0.92100       -0.02800
H          0.91100        2.10600        0.09300
H         -1.55700        2.23500       -0.00100
H         -2.86900        0.11100       -0.07500
