30
133095-74-6.pdb
C          2.43700        0.25100        0.26000
C          0.94100        0.18400        0.15200
C          0.32200       -0.34200       -0.99000
C         -1.07100       -0.41300       -1.07200
C         -1.84800        0.04900       -0.00600
C         -1.24600        0.57300        1.14000
C          0.14600        0.64000        1.21400
S         -3.61800       -0.11400       -0.05100
O         -3.97700       -0.68300       -1.33500
O         -4.01100       -0.75700        1.18400
O         -4.17500        1.42200       -0.02200
C         -5.59900        1.55600       -0.05200
C         -6.02700        3.03100       -0.05700
O         -5.54700        3.69100        1.11100
C         -5.52200        3.77700       -1.26000
C         -6.30800        4.36200       -2.17400
H          2.92400       -0.12300       -0.64700
H          2.78200       -0.35700        1.10200
H          2.75700        1.28700        0.40900
H          0.92300       -0.71200       -1.81900
H         -1.53300       -0.84400       -1.95800
H         -1.84900        0.90500        1.98200
H          0.61500        1.03800        2.11300
H         -6.00500        1.07100        0.84300
H         -5.99500        1.05300       -0.94100
H         -7.12200        3.07000       -0.01700
H         -4.57700        3.70000        1.05600
H         -4.44400        3.83400       -1.38900
H         -7.39200        4.34300       -2.09600
H         -5.87800        4.88100       -3.02500
