14
13327-27-0.pdb
C         -2.91900       -0.00600       -0.00600
C         -1.41200       -0.01600       -0.00300
N         -0.79800       -1.15800       -0.00200
N          0.56800       -1.12000        0.00300
C          1.34000        0.01300        0.00800
O          2.56500       -0.00400        0.01300
C          0.60500        1.29200        0.00700
C         -0.73000        1.29800        0.00000
H         -3.30800       -1.02800       -0.00600
H         -3.28200        0.51000       -0.90000
H         -3.28500        0.51100        0.88500
H          1.04700       -2.01400        0.00300
H          1.19900        2.19600        0.01200
H         -1.31500        2.20700       -0.00300
