23
13331-19-6.pdb
C          0.96400        1.99100        2.02300
C          2.48400        1.98000        2.05100
C          3.05100        1.03400        0.99100
C          4.56200        1.00400        1.00700
C          5.29500        0.13100        1.82600
O          4.71800       -0.77200        2.67500
C          6.69100        0.13500        1.82000
C          7.38800        1.01500        0.99800
C          6.68600        1.90100        0.18200
C          5.28900        1.89300        0.19700
O          4.60500        2.77100       -0.59900
H          0.57400        2.67200        2.78500
H          0.56100        0.99300        2.22100
H          0.59200        2.32500        1.04800
H          2.82300        1.67900        3.05000
H          2.85300        2.99900        1.88500
H          2.69400        1.33300       -0.00400
H          2.65200        0.02200        1.12700
H          3.75400       -0.70400        2.61700
H          7.23300       -0.55600        2.46000
H          8.47500        1.01000        0.99400
H          7.24000        2.58700       -0.44900
H          5.24400        3.29600       -1.10700
