25
13335-73-4.pdb
C          1.83400        1.48600       -0.00600
C          0.55400        0.69500       -0.00500
C         -0.67200        1.37500       -0.00600
C         -1.88300        0.67700       -0.02500
C         -1.88800       -0.71500       -0.05000
O         -3.01600       -1.49600       -0.06400
C         -4.15100       -0.89900       -0.70100
C         -5.30800       -1.88600       -0.73100
O         -5.03000       -3.06100       -0.11700
O         -6.39200       -1.64800       -1.24500
C         -0.67200       -1.40300       -0.01700
C          0.55500       -0.71300       -0.00200
C          1.84300       -1.49000        0.01800
H          1.64000        2.56400       -0.01400
H          2.42300        1.25400       -0.89900
H          2.42200        1.26300        0.88900
H         -0.69500        2.46300        0.01100
H         -2.79800        1.25800       -0.00200
H         -3.90300       -0.64400       -1.73800
H         -4.50200       -0.03100       -0.13500
H         -4.11300       -3.03900        0.23200
H         -0.67800       -2.49100       -0.01500
H          1.66300       -2.57000        0.02100
H          2.41800       -1.24900        0.91800
H          2.44200       -1.25700       -0.86900
