23
13362-30-6.pdb
C          1.45000        0.40200       -1.25600
C          2.29200        0.50200        0.00300
O          3.14600        1.65100       -0.13000
C          4.31900        1.41600       -0.75500
O          4.81100        0.33200       -1.01800
C          4.91600        2.68700       -1.23300
C          6.04300        2.60200       -2.05100
C          6.56800        3.76200       -2.58800
N          6.00500        4.94500       -2.30500
C          4.94400        5.08200       -1.49800
N          4.38100        6.33000       -1.32800
C          4.35600        3.93800       -0.96200
H          0.76500       -0.44700       -1.20800
H          2.08600        0.29300       -2.14200
H          0.87200        1.32100       -1.39900
H          2.86500       -0.41600        0.17900
H          1.65100        0.66200        0.87600
H          6.48400        1.63500       -2.29300
H          7.42100        3.77000       -3.25900
H          6.38300        5.78500       -2.73500
H          4.84000        7.16400       -1.67700
H          3.94000        6.49400       -0.42100
H          3.45600        4.02700       -0.35600
