45
13360-61-7.pdb
C          0.99700       -0.08500        0.07200
C          2.51300       -0.08600        0.06300
C          3.03700       -1.07500       -0.96900
C          4.55800       -1.07900       -0.97900
C          5.07100       -2.07000       -2.01000
C          6.59000       -2.07600       -2.01800
C          7.10600       -3.06900       -3.05000
C          8.62700       -3.07400       -3.05700
C          9.13500       -4.06500       -4.08300
C         10.65800       -4.07000       -4.08700
C         11.17600       -5.06200       -5.11700
C         12.70000       -5.06800       -5.12500
C         13.21700       -6.06300       -6.15700
C         14.71500       -6.09100       -6.17600
C         15.42600       -7.19300       -5.91100
H          0.62100        0.62600        0.81500
H          0.61000       -1.07900        0.32200
H          0.60300        0.20100       -0.90900
H          2.88700       -0.35100        1.06000
H          2.88000        0.92200       -0.16400
H          2.66100       -0.80700       -1.96300
H          2.66800       -2.08200       -0.74100
H          4.93900       -1.34700        0.01500
H          4.93500       -0.07500       -1.21100
H          4.69700       -1.80400       -3.00700
H          4.69900       -3.07700       -1.78200
H          6.96800       -2.34400       -1.02400
H          6.96700       -1.07000       -2.24400
H          6.72900       -2.80100       -4.04500
H          6.72900       -4.07400       -2.81900
H          8.99900       -3.34100       -2.05900
H          8.99900       -2.06900       -3.28500
H          8.76100       -3.79800       -5.07900
H          8.76100       -5.07000       -3.85200
H         11.03200       -4.33700       -3.09200
H         11.03200       -3.06500       -4.31800
H         10.79900       -4.79600       -6.11300
H         10.79900       -6.06600       -4.88700
H         13.07000       -5.33100       -4.12600
H         13.07000       -4.06000       -5.35000
H         12.85200       -5.79100       -7.15300
H         12.81700       -7.05900       -5.93000
H         15.23100       -5.16300       -6.42000
H         14.93600       -8.13100       -5.66600
H         16.50800       -7.17900       -5.93300
