18
13361-30-3.pdb
C          1.02800        0.19900        0.13200
C          2.55100        0.17500        0.03400
C          2.98400       -0.18300       -1.38400
O          3.07900        1.47600        0.37000
C          3.16500        1.73000        1.71500
O          2.86600        0.92300        2.58400
C          3.66300        3.12600        1.95800
C          3.74100        3.40900        3.39600
N          3.81500        3.66900        4.52400
H          0.60200       -0.77600       -0.12200
H          0.60600        0.95500       -0.54000
H          0.70100        0.46300        1.14300
H          2.96400       -0.58300        0.71100
H          2.64300        0.56700       -2.10700
H          2.58400       -1.15900       -1.67800
H          4.07500       -0.22300       -1.45400
H          2.97400        3.83500        1.48200
H          4.65300        3.23400        1.50600
