63
13373-97-2.pdb
C          0.86300       -0.01300       -0.04800
C          2.38200       -0.02300       -0.05200
C          2.91700       -1.44600       -0.16600
C          4.44200       -1.45800       -0.16900
C          4.96600       -2.88400       -0.28300
C          6.48900       -2.89600       -0.28600
C          7.00800       -4.32200       -0.39700
C          8.52900       -4.33500       -0.39900
C          9.04500       -5.76100       -0.51200
C         10.56500       -5.77500       -0.51400
C         11.08100       -7.20100       -0.62800
C         12.60100       -7.21300       -0.63100
C         13.11900       -8.63700       -0.74500
C         14.64000       -8.64800       -0.74700
C         15.16000      -10.07400       -0.86200
C         16.68300      -10.09000       -0.86400
C         17.20200      -11.51800       -0.97900
C         18.72800      -11.54000       -0.98300
C         19.24900      -12.97000       -1.09900
C         20.77400      -12.98400       -1.10300
S         21.39100      -14.68500       -1.23600
H          0.49100        1.01300        0.03500
H          0.47100       -0.58800        0.79700
H          0.46800       -0.44700       -0.97200
H          2.75100        0.44100        0.87100
H          2.74800        0.58100       -0.88900
H          2.54500       -1.91000       -1.08800
H          2.54700       -2.05000        0.67100
H          4.81900       -0.99800        0.75300
H          4.81700       -0.85900       -1.00700
H          4.59100       -3.34600       -1.20400
H          4.59400       -3.48500        0.55600
H          6.86700       -2.43500        0.63400
H          6.86400       -2.29900       -1.12600
H          6.63200       -4.78500       -1.31800
H          6.63300       -4.92100        0.44200
H          8.90600       -3.87500        0.52300
H          8.90500       -3.73600       -1.23800
H          8.66800       -6.22100       -1.43400
H          8.66900       -6.36100        0.32600
H         10.94200       -5.31600        0.40800
H         10.94100       -5.17600       -1.35200
H         10.70300       -7.66000       -1.55100
H         10.70600       -7.80200        0.21000
H         12.97700       -6.75300        0.29100
H         12.97600       -6.61200       -1.46900
H         12.74300       -9.09700       -1.66800
H         12.74100       -9.23700        0.09300
H         15.01600       -8.18900        0.17600
H         15.01500       -8.04700       -1.58400
H         14.78200      -10.53200       -1.78500
H         14.78200      -10.67400       -0.02600
H         17.05700       -9.63100        0.06000
H         17.05800       -9.48900       -1.70000
H         16.82300      -11.97400       -1.90100
H         16.82400      -12.11600       -0.14200
H         19.10300      -11.08100       -0.05900
H         19.10200      -10.93800       -1.81800
H         18.86400      -13.42100       -2.02200
H         18.86600      -13.56200       -0.25900
H         21.16500      -12.54200       -0.18000
H         21.16100      -12.40500       -1.94700
H         20.82400      -15.14100       -0.10900
