58
1338-39-2.pdb
C          7.92300        8.89500       -9.80700
C          8.12900        7.72200       -8.86400
C          9.28600        6.84200       -9.32800
C          9.49500        5.66200       -8.38300
C         10.65400        4.78900       -8.85500
C         10.86800        3.60700       -7.91700
C         12.02800        2.73900       -8.39700
C         12.24000        1.55700       -7.46000
C         13.40000        0.68000       -7.92800
C         13.58400       -0.49100       -6.97100
C         14.72100       -1.41200       -7.39800
C         14.85400       -2.55800       -6.42900
O         14.17600       -2.69900       -5.41000
O         15.92500       -3.32200       -6.77100
C         16.51300       -4.03300       -5.67000
C         16.39100       -5.54400       -5.83100
O         15.00500       -5.91300       -5.84600
C         17.10000       -6.28500       -4.68600
O         16.51800       -5.92400       -3.40800
C         16.26200       -7.13500       -2.67500
C         17.07500       -8.22600       -3.34500
O         16.58100       -9.52900       -3.08600
C         16.98200       -7.80300       -4.80500
O         18.00400       -8.35300       -5.62300
H          7.09200        9.51800       -9.46200
H          7.69200        8.54700      -10.81900
H          8.82100        9.52000       -9.85500
H          7.20700        7.13100       -8.81500
H          8.32800        8.09900       -7.85500
H         10.20500        7.43700       -9.38100
H          9.08400        6.47000      -10.34000
H          8.57800        5.06100       -8.33100
H          9.69900        6.03000       -7.37000
H         11.57100        5.39000       -8.90600
H         10.45100        4.42200       -9.86900
H          9.95300        3.00500       -7.86400
H         11.07400        3.97200       -6.90300
H         12.94400        3.34000       -8.44700
H         11.82300        2.37400       -9.41100
H         11.32200        0.95700       -7.41000
H         12.44100        1.92300       -6.44500
H         14.32000        1.27500       -7.97600
H         13.19900        0.30700       -8.93900
H         12.65400       -1.06900       -6.91600
H         13.77600       -0.10800       -5.95900
H         15.66700       -0.84900       -7.40700
H         14.53500       -1.81900       -8.39400
H         16.07000       -3.71600       -4.71900
H         17.56700       -3.73800       -5.65400
H         16.81700       -5.84000       -6.79800
H         14.64600       -5.66100       -4.97100
H         18.15700       -5.99200       -4.65900
H         15.18600       -7.34100       -2.72200
H         16.52800       -7.00300       -1.62100
H         18.11700       -8.19200       -3.00700
H         15.72900       -9.63700       -3.54400
H         16.01800       -8.11300       -5.22600
H         18.85400       -8.27400       -5.15500
