30
13395-36-3.pdb
C          1.12900        4.27100       -0.34900
C          2.43000        4.82700        0.20100
O          3.48800        4.39000       -0.66000
C          4.05100        3.21600       -0.33300
O          3.99500        2.61200        0.72400
C          4.76100        2.63700       -1.54200
O          4.14400        1.91900       -2.31800
C          6.22000        2.94500       -1.66000
C          6.51300        4.22100       -2.41300
O          5.59500        4.94400       -2.80200
C          7.99200        4.60400       -2.64700
C          8.70100        3.53200       -3.48300
C          8.06500        5.94200       -3.40600
C          8.69900        4.77100       -1.29500
H          0.27200        4.60500        0.24000
H          1.15000        3.17600       -0.35600
H          0.99200        4.58700       -1.38900
H          2.58900        4.52200        1.24200
H          2.41100        5.92200        0.17900
H          6.67900        2.10000       -2.18200
H          6.64500        2.99500       -0.65500
H          8.20900        3.39800       -4.45300
H          8.70800        2.55900       -2.98200
H          9.74600        3.80600       -3.67000
H          7.59400        5.86500       -4.39300
H          9.10300        6.25900       -3.55600
H          7.54900        6.74000       -2.85800
H          8.73700        3.82900       -0.73800
H          8.17600        5.50300       -0.66700
H          9.73000        5.11300       -1.42600
