27
134-84-9.pdb
C          2.48800       -0.02800        0.00800
C          0.98900       -0.00200        0.03600
C          0.29700        1.21300        0.04200
C         -1.09900        1.23200        0.01500
C         -1.82100        0.03300        0.00800
C         -1.13200       -1.18500        0.00700
C          0.26500       -1.20200        0.02200
C         -3.30900        0.01300       -0.06300
O         -3.87400       -0.94000       -0.59100
C         -4.12800        1.13600        0.46500
C         -3.76000        1.83900        1.61900
C         -4.54000        2.90800        2.06300
C         -5.70200        3.25800        1.37400
C         -6.08800        2.53900        0.24300
C         -5.30500        1.47600       -0.21000
H          2.90600        0.98500        0.01700
H          2.83700       -0.52400       -0.90400
H          2.87500       -0.56000        0.88200
H          0.83900        2.15700        0.04900
H         -1.60000        2.19500       -0.02400
H         -1.68200       -2.12400       -0.01700
H          0.78500       -2.15700        0.01000
H         -2.87200        1.56800        2.18300
H         -4.24600        3.46500        2.94900
H         -6.31100        4.08700        1.72400
H         -7.00000        2.80500       -0.28700
H         -5.61100        0.91700       -1.09300
