20
134-20-3.pdb
C          1.22900        1.12200       -2.39700
O          2.64400        1.09700       -2.21600
C          3.06100        0.40300       -1.12500
O          2.34700       -0.16100       -0.31200
C          4.54700        0.39700       -1.08300
C          5.25500        1.51200       -1.56700
C          6.64700        1.52400       -1.55000
C          7.34000        0.42500       -1.05400
C          6.64100       -0.68300       -0.56500
C          5.23800       -0.70000       -0.52900
N          4.59600       -1.90300       -0.17500
H          1.02400        1.58100       -3.36900
H          0.76200        1.73200       -1.61900
H          0.81500        0.10900       -2.40200
H          4.72300        2.37300       -1.96800
H          7.18800        2.38300       -1.94000
H          8.42700        0.41900       -1.06100
H          7.20400       -1.54400       -0.21600
H          5.11100       -2.47300        0.48900
H          3.62500       -1.75600        0.11700
