48
13402-96-5.pdb
C          2.83200       -1.13500       -2.90700
C          2.45100       -1.90300       -1.64700
C          2.95600       -1.29400       -0.30400
C          2.30100        0.09000       -0.09200
C          2.43700       -2.20200        0.84300
C          4.49300       -1.24700       -0.23400
C          5.21400       -0.06100       -0.07500
C          6.61000       -0.06800       -0.02600
C          7.33300       -1.26500       -0.07900
O          8.69700       -1.28400       -0.18400
C          9.43000       -0.22800        0.47200
C         10.93900       -0.45700        0.28700
O         11.50100       -1.15400        1.18500
O         11.46300        0.12800       -0.71100
C          6.64900       -2.49400       -0.13200
C          5.24100       -2.43900       -0.29000
C          7.34700       -3.87400       -0.00300
C          6.37600       -4.95200        0.56200
C          7.78300       -4.33500       -1.41000
C          8.60900       -3.90700        0.92200
C          8.38400       -3.47200        2.36800
H          2.42200       -1.64200       -3.78700
H          3.91800       -1.08000       -3.03200
H          2.42800       -0.11900       -2.90100
H          2.80700       -2.93500       -1.75800
H          1.35400       -1.97200       -1.61800
H          1.20800        0.02300       -0.13300
H          2.61100        0.81600       -0.85100
H          2.56400        0.50700        0.88800
H          1.34100       -2.23500        0.85500
H          2.77300       -1.83900        1.82100
H          2.78200       -3.23800        0.74300
H          4.72300        0.90500       -0.00900
H          7.11600        0.89000        0.03400
H          9.18900       -0.22500        1.54200
H          9.19000        0.74700        0.03700
H          4.69300       -3.36200       -0.44900
H          5.56900       -5.19700       -0.13700
H          5.91300       -4.62100        1.50000
H          6.89700       -5.89500        0.76200
H          6.92900       -4.41000       -2.09300
H          8.25900       -5.32100       -1.36900
H          8.50300       -3.63900       -1.85700
H          9.43200       -3.32500        0.49700
H          9.00100       -4.93400        0.94900
H          7.98900       -2.45600        2.43900
H          9.33400       -3.49600        2.91100
H          7.69600       -4.14600        2.88700
