20
13412-12-9.pdb
C          1.10400        0.38500       -0.60100
O          2.52200        0.21100       -0.63000
C          2.93000       -1.07800       -0.81000
O          2.18200       -2.04100       -0.90800
C          4.43100       -1.14200       -0.78400
C          5.02300       -2.30800       -1.54100
C          4.73900       -3.70700       -1.04400
N          5.78100       -2.03800       -2.55200
C          6.40800       -3.13700       -3.27200
H          0.89700        1.45900       -0.56600
H          0.68700       -0.07800        0.29800
H          0.64000       -0.02500       -1.50300
H          4.75700       -1.20100        0.25900
H          4.82800       -0.21500       -1.21600
H          4.09100       -3.68600       -0.16400
H          5.67600       -4.19400       -0.76200
H          4.24600       -4.28600       -1.83000
H          7.01600       -2.72600       -4.08500
H          5.66400       -3.80100       -3.72300
H          7.08000       -3.70900       -2.62500
