26
13461-74-0.pdb
O          1.09200        0.06900       -0.05700
C          2.51300        0.04500       -0.10000
C          2.96900        0.04000       -1.50200
C          3.33100        0.03600       -2.64700
C          3.04400       -1.14500        0.69700
C          2.86800       -2.50400        0.46700
C          3.47300       -3.40800        1.34400
C          4.23800       -2.95200        2.43000
C          4.40900       -1.58400        2.66200
C          3.81100       -0.68600        1.79300
C          3.81500        0.76300        1.79300
C          4.41500        1.66100        2.66200
C          4.24500        3.03000        2.43000
C          3.47800        3.48700        1.34600
C          2.87100        2.58300        0.47100
C          3.05300        1.22500        0.69700
H          0.80100       -0.74900       -0.48700
H          3.65400        0.04000       -3.66300
H          2.28300       -2.86400       -0.37300
H          3.35500       -4.47700        1.18500
H          4.70100       -3.67300        3.10000
H          5.00000       -1.24400        3.50600
H          5.00200        1.32100        3.50900
H          4.70800        3.75100        3.10000
H          3.35300        4.55600        1.18900
H          2.26900        2.93300       -0.36200
