15
13466-41-6.pdb
C          1.09900       -0.06200        0.04200
C          2.59200        0.02500       -0.03100
C          3.25500        1.19500       -0.05500
C          4.73700        1.21200       -0.15900
O          5.36100        2.26600       -0.19500
N          5.34700       -0.01800       -0.21500
C          4.67000       -1.20900       -0.17500
C          3.33400       -1.22300       -0.08500
H          0.63700        0.92800        0.11200
H          0.78600       -0.63700        0.92000
H          0.70100       -0.55100       -0.85400
H          2.76700        2.16000       -0.01500
H          6.35700       -0.00500       -0.29000
H          5.26500       -2.11400       -0.22000
H          2.79100       -2.16300       -0.04800
