26
134678-17-4.pdb
N          8.05100        5.43800        0.57700
C          7.74600        4.10800        0.50400
N          6.68400        3.70000        1.13000
C          6.31600        2.38000        1.06400
O          5.32700        1.96600        1.66700
N          7.09000        1.50800        0.29500
C          8.24800        1.93400       -0.31900
C          8.62800        3.20800       -0.26200
C          6.63200        0.12800        0.16900
C          7.09300       -0.76500        1.32400
S          6.84300       -2.42900        0.67300
C          6.94500       -1.84400       -1.04500
C          8.12200       -2.50500       -1.77300
O          7.97200       -3.91800       -1.87600
O          7.14400       -0.43000       -1.05400
H          7.54000        5.92300        1.31000
H          9.02100        5.71100        0.50100
H          8.83200        1.20400       -0.87100
H          9.51000        3.59000       -0.75500
H          5.53500        0.12700        0.10000
H          6.53300       -0.59600        2.24700
H          8.16100       -0.64200        1.52900
H          6.00200       -2.07800       -1.55100
H          9.07400       -2.28300       -1.27500
H          8.20900       -2.09800       -2.78700
H          7.78200       -4.24400       -0.97600
