24
135-98-8.pdb
C          2.87700       -1.33000       -0.33700
C          2.44600        0.06500        0.09900
C          3.04000        1.19200       -0.77000
C          2.47400        2.54900       -0.33100
C          4.56000        1.23200       -0.75900
C          5.26800        1.14000       -1.96700
C          6.66400        1.18300       -1.98100
C          7.37000        1.31800       -0.78800
C          6.68100        1.41000        0.41900
C          5.28600        1.36800        0.43400
H          2.39500       -2.08400        0.29400
H          3.95900       -1.46600       -0.24600
H          2.58900       -1.52300       -1.37500
H          2.70900        0.20600        1.15400
H          1.35100        0.11400        0.04400
H          2.70100        1.02200       -1.80100
H          2.74000        2.78700        0.70400
H          1.38100        2.55400       -0.40300
H          2.85400        3.35700       -0.96700
H          4.73700        1.03500       -2.91100
H          7.20000        1.11100       -2.92400
H          8.45600        1.35300       -0.79900
H          7.23000        1.51600        1.35100
H          4.77000        1.44600        1.38800
