36
135-48-8.pdb
C         -6.11300       -0.67900       -0.06600
C         -6.10900        0.71200       -0.03400
C         -4.89700        1.40300        0.00400
C         -3.67400        0.71200        0.00800
C         -2.44700        1.39400        0.02300
C         -1.22300        0.70400        0.02000
C          0.00400        1.38700        0.01100
C          1.22900        0.69900        0.00600
C          2.45500        1.38500       -0.01100
C          3.68000        0.69800       -0.01500
C          4.90600        1.38400       -0.02800
C          6.11500        0.68600       -0.03200
C          6.11400       -0.70500       -0.02600
C          4.90400       -1.40100       -0.01200
C          3.67900       -0.71300       -0.00400
C          2.45200       -1.39800        0.01400
C          1.22700       -0.70900        0.01800
C         -0.00100       -1.39300        0.02800
C         -1.22700       -0.70500        0.02100
C         -2.45500       -1.38900        0.00800
C         -3.67900       -0.69900       -0.00900
C         -4.90700       -1.38100       -0.04900
H         -7.05600       -1.22000       -0.10500
H         -7.04700        1.26000       -0.04100
H         -4.91400        2.49100        0.02800
H         -2.44400        2.48300        0.03000
H          0.00600        2.47600        0.00100
H          2.45700        2.47400       -0.02400
H          4.92800        2.47100       -0.03500
H          7.05600        1.23000       -0.04100
H          7.05400       -1.25100       -0.03100
H          4.92400       -2.48800       -0.00700
H          2.45200       -2.48600        0.02400
H         -0.00300       -2.48200        0.03700
H         -2.45800       -2.47800        0.00400
H         -4.93100       -2.46800       -0.07400
