30
135-88-6.pdb
N          1.18800       -0.19900        0.30500
C          0.52400       -1.31200        0.84200
C          0.90400       -1.86000        2.07000
C          0.27600       -3.01000        2.56400
C         -0.73400       -3.62500        1.82300
C         -1.11900       -3.08600        0.59900
C         -0.49400       -1.93300        0.11300
C          2.56500        0.08200        0.20000
C          2.94600        1.36900       -0.18400
C          4.27700        1.68200       -0.43600
C          5.28500        0.74800       -0.17700
C          6.61700        1.03600       -0.44800
C          7.62300        0.28500        0.15500
C          7.29700       -0.85300        0.88700
C          5.97300       -1.28600        0.94300
C          4.93600       -0.48300        0.42700
C          3.57700       -0.82900        0.53000
H          0.65700        0.26900       -0.42800
H          1.67700       -1.38600        2.66300
H          0.57600       -3.41400        3.52600
H         -1.21400       -4.51900        2.20400
H         -1.90400       -3.56400        0.01900
H         -0.80100       -1.54100       -0.85300
H          2.19000        2.15200       -0.29400
H          4.53800        2.68700       -0.75400
H          6.88200        1.87300       -1.08600
H          8.65600        0.61000        0.07700
H          8.07500       -1.40500        1.40800
H          5.74000       -2.21800        1.45000
H          3.31700       -1.83100        0.86000
