18
135-02-4.pdb
C          0.94400       -0.24600       -0.23000
O          2.30400        0.10900       -0.00700
C          3.03800       -0.71200        0.80900
C          2.70800       -2.04500        1.08400
C          3.54000       -2.83200        1.88700
C          4.71200       -2.30200        2.41900
C          5.05300       -0.97800        2.15700
C          4.21800       -0.18400        1.35700
C          4.59700        1.22700        1.12400
O          5.60600        1.72000        1.61400
H          0.50500        0.51400       -0.88400
H          0.38600       -0.24300        0.71300
H          0.84900       -1.20700       -0.74500
H          1.81700       -2.51100        0.67700
H          3.27300       -3.86700        2.09100
H          5.36200       -2.91900        3.03500
H          5.96700       -0.56200        2.57700
H          3.92400        1.83300        0.49400
