40
135-15-9.pdb
C          0.86600       -0.04800        1.27600
C          2.36400       -0.00200        1.52500
C          3.01700       -1.35700        1.25300
C          4.52100       -1.30000        1.49800
O          5.09200       -2.58400        1.22600
C          6.43300       -2.70600        1.47400
C          7.27100       -1.66100        1.87000
C          8.63000       -1.87900        2.11300
C          9.17900       -3.15500        2.00100
O         10.51100       -3.42400        2.15900
C         11.23500       -2.56200        3.04200
C         12.69200       -3.01400        3.07400
C         13.51700       -2.15100        4.02600
C         14.97100       -2.59200        4.05900
C          8.32400       -4.19700        1.63000
C          6.96700       -3.98600        1.33300
N          8.80700       -5.56200        1.67900
O          9.16100       -5.99500        2.78200
O          8.76800       -6.21600        0.62600
H          0.41800        0.93200        1.47000
H          0.38300       -0.77900        1.93200
H          0.65100       -0.32100        0.23800
H          2.54700        0.29900        2.56300
H          2.81200        0.76500        0.88300
H          2.82900       -1.67100        0.21900
H          2.57400       -2.12900        1.89200
H          4.69900       -1.02200        2.54500
H          4.96400       -0.55000        0.83100
H          6.90300       -0.64700        1.99200
H          9.22900       -1.01400        2.38500
H         10.79800       -2.62900        4.04600
H         11.21100       -1.52500        2.69300
H         13.10800       -2.96100        2.05900
H         12.74300       -4.06800        3.36800
H         13.09900       -2.21200        5.03800
H         13.46700       -1.10000        3.71800
H         15.05700       -3.63100        4.38900
H         15.54100       -1.96500        4.75300
H         15.42900       -2.50500        3.06800
H          6.32800       -4.81300        1.02600
