22
135053-11-1.pdb
N          1.84900        0.31600        3.08200
C          3.11100        0.09800        2.64200
O          4.08700        0.48800        3.28300
C          3.25900       -0.61000        1.30200
C          2.65500       -2.02000        1.36900
C          3.83400       -2.89500        1.75800
C          4.95500       -2.35900        0.88400
C          4.71900       -0.84600        0.82400
N          5.76200       -0.15100        1.61300
H          1.72600        0.77000        3.98300
H          1.02500       -0.13200        2.69500
H          2.72300       -0.00400        0.56100
H          2.28400       -2.31100        0.37900
H          1.83100       -2.13000        2.08000
H          3.64000       -3.95800        1.57900
H          4.08000       -2.76300        2.81800
H          4.85200       -2.77800       -0.12500
H          5.94200       -2.64900        1.25900
H          4.85300       -0.49700       -0.20700
H          5.53600       -0.16900        2.62900
H          5.78800        0.85700        1.40400
H          6.71100       -0.52300        1.49000
