20
13506-76-8.pdb
C          2.47900       -0.02500       -0.02800
C          0.96900       -0.09600       -0.01200
C          0.28000        1.13300       -0.02900
C         -1.10900        1.17500       -0.02700
C         -1.82800       -0.01000       -0.00300
C         -1.16800       -1.25900        0.02900
C          0.24500       -1.32200        0.01800
C          1.05700       -2.57900        0.08300
O          0.77300       -3.47000       -0.88600
O          2.03300       -2.69500        0.80300
N         -2.04000       -2.43900        0.10300
O         -3.25500       -2.25500        0.25500
O         -1.53000       -3.55900       -0.02700
H          2.82700        1.01000       -0.12900
H          2.88300       -0.58100       -0.87900
H          2.89700       -0.40200        0.91000
H          0.82700        2.07000       -0.04000
H         -1.62500        2.13400       -0.03800
H         -2.91600        0.05800        0.00300
H         -0.15300       -3.79900       -0.81900
