17
13538-42-6.pdb
N          1.14000       -0.04200       -0.03100
C          2.49300       -0.11700        0.14500
O          3.08100        0.65400        0.89200
C          3.21000       -1.19800       -0.57000
C          4.38200       -1.70000       -0.01000
C          5.03300       -2.70700       -0.69200
N          4.60500       -3.21500       -1.86900
C          3.48700       -2.69600       -2.40200
N          3.06100       -3.24300       -3.61000
C          2.75300       -1.69700       -1.78900
H          0.65000        0.62800        0.54800
H          0.60100       -0.80400       -0.41900
H          4.76700       -1.32300        0.93100
H          5.94500       -3.15100       -0.30000
H          3.77200       -3.91300       -3.89500
H          2.91400       -2.53200       -4.31700
H          1.86000       -1.31100       -2.26300
