46
13574-13-5.pdb
C          2.83900       -1.20300        0.25300
C          2.50500        0.26100       -0.07300
C          2.96400        0.63800       -1.49400
C          0.97400        0.40600       -0.01400
O          3.06200        1.15900        0.91800
C          4.41100        1.16700        1.08700
O          5.19500        0.44700        0.48700
N          4.81100        2.09700        2.00400
C          6.22800        2.37200        2.30300
C          6.96300        2.90900        1.05800
C          8.45300        3.16400        1.28300
C          9.15200        3.65000        0.03500
O          8.63500        3.81500       -1.06100
O         10.46900        3.86500        0.31800
C         11.28400        4.31900       -0.76600
C         11.90000        5.64700       -0.40600
C         13.14200        5.71400        0.24100
C         13.70500        6.95000        0.56600
C         13.02800        8.12800        0.25600
C         11.78500        8.07300       -0.37200
C         11.22100        6.83800       -0.69700
C          6.39800        3.39400        3.47200
O          5.45100        4.22800        3.58900
O          7.44000        3.25200        4.17200
H          2.38100       -1.88900       -0.47000
H          2.48800       -1.46400        1.25800
H          3.91300       -1.40800        0.24100
H          2.60000       -0.08600       -2.23200
H          4.05100        0.68000       -1.58700
H          2.59400        1.62800       -1.77500
H          0.48000       -0.23500       -0.75700
H          0.66200        1.44200       -0.19700
H          0.59000        0.13600        0.97600
H          4.13300        2.64400        2.52300
H          6.67400        1.41400        2.60700
H          6.47300        3.82600        0.70300
H          6.86800        2.19200        0.23500
H          8.93800        2.23500        1.60300
H          8.60000        3.93600        2.04200
H         10.74800        4.40500       -1.71700
H         12.07100        3.57300       -0.92100
H         13.67300        4.80100        0.50200
H         14.66700        6.99200        1.06900
H         13.46200        9.09000        0.51600
H         11.24800        8.98900       -0.60200
H         10.24300        6.80500       -1.17400
