26
136-36-7.pdb
O          2.10500        0.19500        0.89200
C          0.80800        0.07900        0.48500
C          0.27200       -1.15800        0.13300
C         -1.05300       -1.23200       -0.29600
C         -1.83600       -0.07600       -0.36400
C         -1.29600        1.15100        0.02500
O         -2.01000        2.37000       -0.02800
C         -3.38300        2.40800        0.16800
O         -4.12700        1.47600        0.43800
C         -3.88600        3.78200       -0.06800
C         -3.14700        4.91800        0.28200
C         -3.68500        6.19000        0.06100
C         -4.95100        6.32800       -0.51000
C         -5.69100        5.19800       -0.85200
C         -5.16400        3.92600       -0.62400
C          0.03600        1.23600        0.43100
H          2.51300       -0.68700        0.88100
H          0.86600       -2.06500        0.18100
H         -1.48100       -2.19000       -0.57900
H         -2.85900       -0.16000       -0.72000
H         -2.16600        4.82700        0.74100
H         -3.11900        7.07600        0.34000
H         -5.36500        7.31900       -0.68400
H         -6.68000        5.30500       -1.29200
H         -5.75100        3.04700       -0.88300
H          0.47200        2.19200        0.70400
