24
136-64-1.pdb
N          1.11100       -0.04900       -0.25400
N          2.51800        0.05200       -0.30200
C          3.13600        1.19400        0.19200
O          2.53500        2.17400        0.62500
C          4.62800        1.17500        0.16900
C          5.32000        0.53500       -0.86800
C          6.71600        0.58300       -0.91700
C          7.43000        1.27200        0.07300
C          6.73800        1.91800        1.10500
C          5.34000        1.87000        1.15400
C          8.91500        1.39700        0.01600
O          9.48000        2.37200        0.50300
N          9.59800        0.34900       -0.59400
N         11.01000        0.37200       -0.60700
H          0.77600       -0.50700       -1.10300
H          0.73800        0.90900       -0.29200
H          3.05600       -0.80700       -0.38900
H          4.78400        0.04300       -1.67600
H          7.22600        0.12600       -1.76100
H          7.28300        2.47500        1.86400
H          4.80900        2.38900        1.95100
H          9.13500       -0.54500       -0.74500
H         11.29600        1.14800        0.00900
H         11.31100        0.68100       -1.53600
