17
136-85-6.pdb
C          0.90400       -0.01600       -0.02700
C          2.41100       -0.02500       -0.02300
C          3.12100        1.21500       -0.02000
C          4.52800        1.31200       -0.01400
C          5.19700        0.07700       -0.01100
N          6.51500       -0.18100       -0.00400
N          6.54000       -1.51800       -0.00300
N          5.38500       -2.19400       -0.00900
C          4.47800       -1.20300       -0.01400
C          3.07400       -1.27500       -0.02100
H          0.50700        1.00400       -0.02700
H          0.52400       -0.52400        0.86500
H          0.52800       -0.52400       -0.92100
H          2.55300        2.14700       -0.02300
H          5.05400        2.25700       -0.01200
H          7.42600       -2.01600        0.00200
H          2.55200       -2.22300       -0.02300
