16
136-95-8.pdb
N         -3.11900        0.66500        0.14700
C         -1.80300        0.40000        0.08600
S         -1.22300       -1.21200        0.04200
C          0.39600       -0.63000        0.01300
C          1.60100       -1.35300       -0.00700
C          2.80100       -0.63700       -0.01800
C          2.80200        0.75400       -0.01600
C          1.59600        1.46400       -0.00300
C          0.37200        0.76500        0.01700
N         -0.89100        1.33600        0.04400
H         -3.77200       -0.05400       -0.13700
H         -3.39300        1.61100       -0.09200
H          1.60000       -2.43900       -0.00800
H          3.74600       -1.17600       -0.02500
H          3.74400        1.29800       -0.02300
H          1.59200        2.54900       -0.00100
