23
13605-19-1.pdb
C          2.45900       -0.05600       -0.00300
C          0.96100       -0.01500       -0.00900
C          0.27600        1.20400       -0.02400
C         -1.11900        1.22500       -0.03100
C         -1.84300        0.03000       -0.03800
C         -1.17200       -1.19400       -0.03600
O         -1.77400       -2.42400       -0.02200
C         -3.08200       -2.48300       -0.60600
C         -3.55500       -3.93300       -0.56100
O         -3.70400       -4.36400        0.79000
C          0.22500       -1.20900       -0.00600
H          2.88900        0.95000        0.02200
H          2.82500       -0.55500       -0.90600
H          2.82000       -0.59600        0.87800
H          0.82100        2.14500       -0.02200
H         -1.64500        2.17700       -0.02700
H         -2.92500        0.09200       -0.02200
H         -3.04000       -2.14100       -1.64700
H         -3.78200       -1.87400       -0.02500
H         -2.83500       -4.60100       -1.04500
H         -4.52400       -4.03600       -1.05600
H         -2.85300       -4.17400        1.23000
H          0.74400       -2.16500        0.01000
