19
13616-82-5.pdb
C          1.15000       -0.00000        0.07000
C          2.64500       -0.00200       -0.03800
C          3.36900        1.18900       -0.04900
C          4.76000        1.16900       -0.17300
C          5.45700       -0.04200       -0.29600
S          7.23800        0.02400       -0.45900
C          4.74000       -1.25300       -0.28000
C          5.37200       -2.61400       -0.41200
C          3.33900       -1.21400       -0.13300
H          0.74600        1.01700        0.03200
H          0.83400       -0.45800        1.01300
H          0.71400       -0.55900       -0.76500
H          2.85700        2.14800        0.03300
H          5.28900        2.11900       -0.17700
H          7.35100        1.34600       -0.64200
H          6.44200       -2.58400       -0.63000
H          4.89800       -3.16000       -1.23500
H          5.23600       -3.18100        0.51400
H          2.78000       -2.14900       -0.10500
