25
13629-22-6.pdb
N          1.08600       -0.06400        0.01700
N          2.42700        0.02900        0.08800
C          2.93500        0.65300        1.10600
C          4.40200        0.82000        1.25000
C          5.41600        0.39500        0.40800
C          6.72700        0.68100        0.79000
C          6.99000        1.37300        1.98600
C          5.94700        1.79900        2.81900
C          4.64400        1.51900        2.43900
C          3.38200        1.82600        3.07400
C          3.12100        2.50900        4.25200
C          1.79000        2.67100        4.64800
C          0.74100        2.15000        3.87400
C          1.00300        1.45800        2.68800
C          2.32400        1.31100        2.29700
H          0.83500       -0.64400       -0.78800
H          0.67500        0.85100       -0.17700
H          5.19300       -0.13800       -0.50900
H          7.55400        0.36400        0.15800
H          8.02100        1.58000        2.26900
H          6.16600        2.33000        3.73900
H          3.92300        2.91100        4.86200
H          1.56400        3.20400        5.56900
H         -0.28700        2.28300        4.20300
H          0.18600        1.04700        2.11000
