51
13647-35-3.pdb
C          0.95800       -1.12000       -0.19800
C          1.51500        0.20000        0.39300
C          0.67800        0.54100        1.65800
C         -0.73500        1.12400        1.33400
C         -0.60400        2.29200        0.32600
C          0.00200        1.70800       -1.00600
C         -0.15100        2.50200       -2.32500
C         -0.97900        3.79200       -2.31600
C         -1.17200        4.30000       -0.92200
O          0.10500        4.86500       -0.51000
C         -0.99800        5.76100       -0.54100
C         -1.47700        6.25100        0.74800
C         -1.98500        5.42600        1.68200
C         -2.26500        3.96300        1.40600
C         -1.76600        3.28400        0.07900
C         -2.98300        2.54600       -0.52600
C         -2.24300        5.89300        3.00300
N         -2.46700        6.24500        4.09100
O         -1.21100        7.57900        1.03400
C          1.44400        1.40600       -0.58200
C          2.61600        1.19700       -1.51800
C          3.71800        0.97300       -0.47000
C          3.05900        0.10500        0.62800
O          3.56300       -1.22000        0.51800
H         -0.13100       -1.11700       -0.29000
H          1.36500       -1.33400       -1.19100
H          1.20000       -1.96900        0.45200
H          1.21600        1.28700        2.25800
H          0.56800       -0.34400        2.29700
H         -1.39000        0.34300        0.93400
H         -1.18400        1.45000        2.27600
H          0.14600        2.93500        0.81100
H         -0.51900        0.76600       -1.21500
H         -0.62900        1.83300       -3.05600
H          0.82600        2.71300       -2.77300
H         -0.45900        4.53900       -2.93300
H         -1.94700        3.64100       -2.80300
H         -1.01000        6.49500       -1.33900
H         -1.89900        3.39200        2.26600
H         -3.36000        3.86600        1.46000
H         -3.43100        1.86000        0.20200
H         -3.75300        3.26300       -0.83500
H         -2.73200        1.94900       -1.40700
H         -2.05800        8.06100        1.00900
H          1.76500        2.30500       -0.02900
H          2.49700        0.32900       -2.17100
H          2.84100        2.07500       -2.13000
H          4.62500        0.54300       -0.90200
H          3.98800        1.94500       -0.03200
H          3.34100        0.47500        1.61900
H          3.56300       -1.46100       -0.42500
