36
13650-49-2.pdb
C          3.10300       -1.39700        0.51600
C          2.66200       -0.05900       -0.09000
C          3.05900        0.07300       -1.56700
C          1.12800        0.01800       -0.00400
O          3.16800        1.05200        0.69800
C          4.51000        1.22600        0.79400
O          5.36600        0.56900        0.22100
N          4.79200        2.25900        1.64200
C          6.15500        2.64700        1.92500
C          6.72200        3.59000        0.86000
C          6.00500        4.94300        0.86000
C          6.60500        5.95800       -0.11800
N          6.47200        5.54000       -1.54300
C          5.92100        7.33100        0.04000
O          5.84700        7.97500       -1.15500
O          5.51500        7.81000        1.08700
H          2.66400       -2.24400       -0.01900
H          2.80400       -1.45800        1.57000
H          4.19000       -1.52400        0.49800
H          2.61400       -0.72600       -2.17100
H          4.14000        0.02700       -1.71800
H          2.73000        1.03700       -1.97100
H          0.65600       -0.79900       -0.56300
H          0.75600        0.96700       -0.40600
H          0.78700       -0.03600        1.03600
H          4.01000        2.75300        2.04600
H          6.77500        1.74400        1.96800
H          6.17500        3.11300        2.91400
H          6.64700        3.12000       -0.12800
H          7.79000        3.74600        1.06100
H          6.05300        5.35800        1.87500
H          4.93900        4.80400        0.63900
H          7.67000        6.11400        0.09300
H          5.51100        5.21100       -1.69000
H          7.04200        4.70100       -1.68500
H          6.21600        7.34500       -1.82400
