23
13678-67-6.pdb
C          1.05400        0.16900        0.07600
S          0.44600        1.89200        0.11300
C         -1.34300        1.57600        0.07600
C         -1.81300        0.87700        1.29600
O         -1.94600       -0.47900        1.20700
C         -2.37000       -0.91600        2.42000
C         -2.52100        0.14000        3.28800
C         -2.16300        1.30200        2.56100
C          2.54100        0.14800        0.07300
O          3.14800       -0.47300       -0.98100
C          4.48700       -0.37100       -0.78300
C          4.75400        0.29600        0.39000
C          3.49700        0.62200        0.95000
H          0.66100       -0.33100       -0.81400
H          0.70400       -0.37000        0.96200
H         -1.59700        1.01400       -0.82800
H         -1.84500        2.54700        0.00100
H         -2.51500       -1.98300        2.50800
H         -2.84700        0.07800        4.31600
H         -2.15200        2.32400        2.91500
H          5.10800       -0.81300       -1.54900
H          5.73200        0.52400        0.78800
H          3.30100        1.15400        1.87100
