17
13679-74-8.pdb
C          3.44600       -1.18900        0.05300
C          2.65300        0.09900        0.03900
O          1.42200        0.04600        0.03100
C          3.37300        1.36800        0.03700
S          5.08100        1.45300        0.05000
C          5.08200        3.16100        0.04100
C          6.36700        3.91500        0.04900
C          3.79800        3.66600        0.02700
C          2.81600        2.63300        0.02500
H          2.75800       -2.04000        0.04800
H          4.05400       -1.25000        0.95900
H          4.07400       -1.25700       -0.83900
H          7.23900        3.25200        0.04700
H          6.42800        4.54700        0.94000
H          6.43400        4.55700       -0.83500
H          3.57100        4.72500        0.01900
H          1.74400        2.80600        0.01500
