17
13679-72-6.pdb
C          3.18900        1.27100       -0.81100
C          2.66300        0.11600        0.01400
O          1.68700       -0.51300       -0.40400
C          3.33000       -0.21600        1.27700
S          4.66200        0.70800        1.84400
C          4.82900       -0.24000        3.24700
C          3.89500       -1.24700        3.29700
C          3.02000       -1.24900        2.15900
C          1.92100       -2.24800        1.97500
H          2.58800        1.37000       -1.72100
H          4.22300        1.08500       -1.11000
H          3.10800        2.20600       -0.25100
H          5.60100       -0.01700        3.97100
H          3.83900       -1.95600        4.11400
H          1.92400       -2.98900        2.78200
H          2.04200       -2.78700        1.03100
H          0.94600       -1.75200        1.98100
