39
137-58-6.pdb
C          5.88200       -0.36900        3.57400
C          5.06400        0.56500        2.69100
N          5.19300        0.30800        1.24200
C          4.79800       -1.06400        0.86700
C          3.34300       -1.46100        1.12400
C          4.41900        1.30400        0.45300
C          4.84600        2.75800        0.70300
O          4.00600        3.65800        0.70300
N          6.21200        2.94800        0.84300
C          6.80100        4.19800        1.14400
C          6.33000        5.01600        2.20000
C          5.27200        4.62000        3.19200
C          6.91600        6.27700        2.40300
C          7.97200        6.71400        1.61500
C          8.47800        5.88400        0.62000
C          7.91200        4.62000        0.38000
C          8.47700        3.79100       -0.74200
H          5.93700        0.04100        4.58900
H          6.90700       -0.46800        3.20200
H          5.43100       -1.36200        3.64200
H          5.45400        1.56000        2.90800
H          4.01700        0.56500        3.01400
H          5.45200       -1.78000        1.37900
H          5.01200       -1.21300       -0.19900
H          3.01100       -1.21000        2.13500
H          3.22700       -2.54300        1.00600
H          2.66700       -0.97900        0.40900
H          3.35000        1.24000        0.68900
H          4.54900        1.11800       -0.62000
H          6.78400        2.22700        0.42100
H          5.02000        3.56500        3.16000
H          4.35900        5.19800        3.02800
H          5.63000        4.80100        4.21200
H          6.54800        6.92300        3.20000
H          8.40400        7.69700        1.78100
H          9.30800        6.24200        0.01600
H          9.29800        4.30800       -1.25200
H          7.70400        3.58900       -1.49100
H          8.87400        2.84700       -0.35700
