24
137-26-8.pdb
C          1.26300       -1.41500        0.35600
N          2.72400       -1.35700        0.26800
C          3.45400       -1.65200        1.50000
C          3.36500       -0.97300       -0.92900
S          2.55100       -0.54400       -2.34900
S          5.14200       -0.85200       -0.86600
S          5.74200       -2.26200       -2.25300
C          7.51000       -2.11500       -2.16700
S          8.31300       -3.12000       -1.07400
N          8.13400       -1.21000       -3.04800
C          7.42500       -0.32500       -3.97700
C          9.59000       -1.06500       -3.12700
H          0.93300       -1.73000        1.34900
H          0.88300       -2.13200       -0.37800
H          0.84800       -0.42300        0.15100
H          2.77500       -1.93700        2.30700
H          4.01100       -0.76300        1.81200
H          4.14500       -2.48100        1.32200
H          6.34300       -0.41400       -3.94900
H          7.76100       -0.55000       -4.99500
H          7.68900        0.70900       -3.73500
H         10.14200       -1.72700       -2.46000
H          9.85200       -0.03100       -2.88000
H          9.90500       -1.27700       -4.15400
