34
137-97-3.pdb
C         -1.74800       -2.35900       -0.20300
C         -0.92300       -1.10600       -0.32100
C         -1.60100        0.12300       -0.39500
C         -0.89900        1.32700       -0.47300
C          0.48900        1.31800       -0.46100
C          1.17700        0.10700       -0.38800
C          0.48700       -1.11000       -0.33100
N          1.19000       -2.32000       -0.16100
C          2.48400       -2.65100       -0.51400
S          3.31700       -2.13200       -1.86700
N          3.05300       -3.62600        0.27800
C          2.73500       -3.88800        1.62900
C          2.34700       -2.83100        2.46900
C          1.95100       -3.06900        3.77500
C          1.94100       -4.37100        4.26100
C          2.37600       -5.42400        3.45000
C          2.81000       -5.19200        2.13300
C          3.24200       -6.35700        1.29000
H         -2.74800       -2.21000       -0.62600
H         -1.85800       -2.64000        0.84900
H         -1.29900       -3.18900       -0.75700
H         -2.68800        0.15200       -0.39300
H         -1.43700        2.26900       -0.53300
H          1.04400        2.25200       -0.49000
H          2.26000        0.14000       -0.31600
H          0.66900       -3.08900        0.24100
H          3.82900       -4.13300       -0.13300
H          2.37600       -1.80300        2.11400
H          1.65000       -2.24000        4.41200
H          1.60100       -4.56800        5.27500
H          2.35600       -6.43200        3.85300
H          3.28500       -7.28300        1.87700
H          4.24400       -6.18700        0.88400
H          2.53600       -6.51600        0.46900
