19
13708-12-8.pdb
C          1.04800       -0.07000       -0.12400
C          2.54900       -0.07200       -0.00900
C          3.24200        1.14800        0.03300
C          4.62500        1.16000        0.16000
C          5.31700       -0.04600        0.24600
C          4.65600       -1.26500        0.19800
N          5.38100       -2.40000        0.27800
C          4.69200       -3.55800        0.21600
C          3.32100       -3.59000        0.08000
N          2.57900       -2.46600        0.00600
C          3.24200       -1.28800        0.06400
H          0.65100        0.94900       -0.17800
H          0.60300       -0.55300        0.75300
H          0.73400       -0.59800       -1.03000
H          2.70400        2.09100       -0.03100
H          5.16600        2.10200        0.19400
H          6.40000       -0.03800        0.35100
H          5.28000       -4.46600        0.27700
H          2.77600       -4.52500        0.02500
