41
13726-76-6.pdb
C          1.84100       -4.33500        0.10200
C          2.38200       -2.98500       -0.38600
C          3.19500       -3.13700       -1.68100
C          1.18000       -2.07300       -0.68800
O          3.15000       -2.30600        0.65400
C          4.26900       -2.89100        1.14900
O          4.71900       -3.97800        0.82600
N          4.88100       -2.06300        2.06100
C          6.31500       -2.28600        2.33400
C          6.96200       -0.98400        2.84200
C          8.46900       -1.12400        3.06200
C          9.14300        0.17900        3.49000
N         10.55700       -0.12100        3.67600
C         11.35200        0.79200        4.08700
N         11.08300        2.07500        4.39800
N         12.66500        0.50500        4.21000
C          6.51100       -3.42800        3.35900
O          5.45300       -3.56600        4.20000
O          7.54100       -4.06300        3.51600
H          1.18700       -4.79600       -0.64700
H          1.27200       -4.21100        1.03000
H          2.64000       -5.05100        0.31700
H          2.61700       -3.66000       -2.45200
H          4.12300       -3.69400       -1.53100
H          3.48100       -2.15700       -2.07900
H          0.53800       -2.49700       -1.46900
H          1.51100       -1.08200       -1.01700
H          0.57000       -1.91700        0.20900
H          4.52100       -1.11600        2.02900
H          6.78500       -2.60000        1.39400
H          6.47900       -0.66000        3.77200
H          6.77900       -0.18900        2.10400
H          8.94100       -1.49400        2.14300
H          8.66300       -1.87100        3.83900
H          8.69000        0.53400        4.42400
H          9.00800        0.94200        2.71600
H         10.11000        2.31100        4.53100
H         11.70600        2.53400        5.04600
H         12.82000       -0.49500        4.12000
H         13.14200        0.89100        5.01000
H          4.72600       -2.98200        3.90900
