31
13726-67-5.pdb
C          2.64400       -1.19800       -1.28000
C          2.54700       -0.23800       -0.09100
C          3.22400        1.10900       -0.39500
C          1.06100        0.04300        0.19000
O          3.06500       -0.88200        1.11300
C          4.38600       -1.15200        1.21700
O          5.25600       -0.88300        0.40300
N          4.71000       -1.72900        2.41600
C          4.06400       -2.97800        2.84400
C          5.00600       -3.88700        3.64500
C          5.55500       -3.22500        4.88000
O          4.71800       -3.22600        5.93800
O          6.65900       -2.70900        4.91400
C          2.77400       -2.80100        3.64900
O          2.34000       -1.53000        3.75100
O          2.21500       -3.72900        4.21400
H          2.17400       -0.77600       -2.17500
H          2.15200       -2.15000       -1.04800
H          3.68400       -1.43500       -1.52900
H          2.82200        1.55300       -1.31300
H          4.30500        1.02400       -0.53000
H          3.06900        1.82000        0.42500
H          0.57100        0.51800       -0.66700
H          0.94500        0.70200        1.05900
H          0.52300       -0.88100        0.42800
H          5.72700       -1.76000        2.46600
H          3.77700       -3.50900        1.92700
H          5.86500       -4.17000        3.02300
H          4.52600       -4.82900        3.93500
H          3.85000       -3.67200        5.82000
H          2.90900       -0.92100        3.23200
