34
13726-85-7.pdb
C          2.65900       -1.66100       -1.21300
C          2.45800       -0.48600       -0.24200
C          3.00400        0.83200       -0.81400
C          0.94300       -0.31600       -0.03200
O          3.03200       -0.77100        1.06500
C          4.36700       -1.01000        1.14200
O          5.12800       -1.04100        0.17800
N          4.77200       -1.18500        2.42000
C          6.18800       -1.39800        2.80800
C          7.03400       -0.15100        2.47700
C          8.52600       -0.31800        2.77500
C          9.35000        0.88000        2.35400
N          9.03100        2.05900        2.96100
O         10.28600        0.82500        1.56200
C          6.33600       -1.71800        4.33000
O          5.44200       -1.19900        5.06600
O          7.31100       -2.45500        4.64500
H          2.16900       -1.46900       -2.17300
H          2.25000       -2.58400       -0.78800
H          3.71100       -1.86000       -1.42700
H          2.61000        1.02100       -1.81900
H          4.09500        0.84500       -0.88100
H          2.72900        1.67800       -0.17400
H          0.43500       -0.07800       -0.97500
H          0.72600        0.48300        0.68600
H          0.49600       -1.23100        0.37300
H          4.11100       -1.17600        3.18800
H          6.54800       -2.25500        2.22600
H          6.63000        0.71700        3.01300
H          6.93400        0.09400        1.41200
H          8.91500       -1.19600        2.24700
H          8.70300       -0.46200        3.84500
H          8.36700        2.09900        3.72400
H          9.62800        2.85200        2.78100
