45
13726-84-6.pdb
C          6.29700       -2.91500        9.14000
C          6.31800       -1.51100        9.75900
C          4.95600       -1.11100       10.34300
C          7.34000       -1.52000       10.90900
O          6.79500       -0.53100        8.79900
C          6.08800       -0.33500        7.64700
O          5.01000       -0.85300        7.39300
C          6.79200        0.64600        6.73700
C          6.44900        0.34000        5.27400
C          7.06000        1.35400        4.29600
N          6.45000        1.21100        2.95300
C          5.20700        1.69800        2.68400
O          4.45100        2.13900        3.53700
O          4.93300        1.64500        1.35300
C          3.65000        2.15500        0.89700
C          3.49700        3.65500        1.19900
C          3.62900        1.98400       -0.63200
C          2.49000        1.32800        1.47500
C          8.61800        1.28600        4.26600
O          9.13200        0.14600        4.44800
O          9.19000        2.39000        4.02900
H          6.01300       -3.67400        9.87700
H          7.28400       -3.17300        8.73900
H          5.59600       -2.99400        8.30400
H          4.63000       -1.81900       11.11200
H          4.16900       -1.07100        9.58600
H          5.00600       -0.11200       10.79000
H          7.06800       -2.24900       11.68100
H          7.41300       -0.53300       11.37900
H          8.34300       -1.76600       10.54300
H          7.87300        0.58000        6.89800
H          6.45900        1.65200        7.01000
H          5.35700        0.33700        5.16500
H          6.76500       -0.68200        5.02500
H          6.78700        2.36100        4.64000
H          7.06200        0.98100        2.18300
H          4.29500        4.22900        0.71400
H          3.56300        3.88400        2.26500
H          2.53400        4.03600        0.84500
H          4.46100        2.52200       -1.10100
H          2.69300        2.35800       -1.06300
H          3.73800        0.93200       -0.91300
H          2.42400        1.40000        2.56300
H          2.62300        0.26500        1.24200
H          1.52700        1.65500        1.06900
