27
13734-36-6.pdb
C          1.01400        0.10300        0.13100
N          2.46600        0.16900        0.08700
C          3.19500       -0.79900       -0.76700
C          2.57400       -1.23500       -2.12200
O          1.87400       -0.37400       -2.72900
O          2.84600       -2.42300       -2.46600
C          3.07200        0.99700        1.00700
O          2.42900        1.69100        1.79500
O          4.43500        0.97300        0.97000
C          5.17900        1.86800        1.84200
C          4.96700        1.51300        3.32200
C          6.66800        1.65600        1.51900
C          4.84600        3.33800        1.54200
H          0.60300       -0.63600       -0.55500
H          0.61600        1.09400       -0.11000
H          0.70200       -0.15500        1.14800
H          3.33400       -1.69200       -0.14600
H          4.19200       -0.40000       -0.98600
H          5.24300        0.46900        3.51200
H          3.92500        1.61700        3.63500
H          5.56900        2.15400        3.97500
H          6.97100        0.61900        1.70300
H          7.30500        2.31100        2.12600
H          6.87600        1.86000        0.46300
H          3.80500        3.58700        1.75900
H          5.00100        3.55600        0.47800
H          5.47000        4.01700        2.13100
