34
13734-41-3.pdb
C          3.93900       -3.60500       -0.05200
C          3.10800       -2.45900        0.54400
C          3.73000       -2.06600        1.88900
C          3.00800       -1.25900       -0.43700
N          2.40900       -1.61500       -1.72900
C          1.13400       -2.07700       -1.82800
O          0.36000       -2.05500       -0.87600
O          0.86900       -2.55900       -3.06200
C         -0.45100       -3.11900       -3.30700
C         -1.52000       -2.01800       -3.28900
C         -0.39900       -3.73400       -4.71400
C         -0.78300       -4.24900       -2.31800
C          2.32600       -0.01700        0.17700
O          1.04700       -0.18700        0.59400
O          2.89400        1.06300        0.29600
H          4.01000       -4.43800        0.65600
H          4.95800       -3.27600       -0.28200
H          3.48900       -3.99500       -0.97000
H          2.10600       -2.85200        0.75400
H          4.75300       -1.69800        1.76100
H          3.76700       -2.93300        2.55800
H          3.14400       -1.29300        2.39500
H          4.02900       -0.93300       -0.68100
H          2.99400       -1.71900       -2.54500
H         -1.34500       -1.28800       -4.08700
H         -1.51800       -1.45200       -2.35200
H         -2.52300       -2.43800       -3.42200
H         -0.12800       -2.98700       -5.46800
H         -1.36400       -4.17300       -4.99400
H          0.36300       -4.52100       -4.76800
H         -0.85700       -3.90300       -1.28400
H         -0.00100       -5.01500       -2.33200
H         -1.74300       -4.71600       -2.55700
H          0.65100       -1.03900        0.28800
