14
13754-19-3.pdb
N          0.99000        0.00900       -0.30000
C          2.37500        0.08300       -0.09000
C          3.16800       -1.05200       -0.06700
N          4.51500       -1.04600        0.01400
C          5.07900        0.16900        0.01700
N          4.43500        1.34600       -0.05500
C          3.09600        1.28000       -0.12900
N          2.43900        2.50800       -0.28900
H          0.54400       -0.81800        0.07300
H          0.50100        0.86900       -0.07900
H          2.72400       -2.04100       -0.12600
H          6.16100        0.20400        0.07500
H          3.14800        3.23200       -0.22400
H          1.69300        2.63500        0.38200
