13
13750-68-0.pdb
C         -2.54900       -0.38200       -0.00900
C         -1.08400       -0.13100        0.00000
C         -0.08400       -1.08600        0.01100
S          1.45400       -0.33000        0.01700
C          0.68400        1.19700        0.00600
C          1.44500        2.42600        0.00700
O          2.67100        2.53600        0.01300
N         -0.63400        1.18100       -0.00200
H         -2.77000       -1.45400        0.00100
H         -3.00100        0.05200       -0.90600
H         -3.01700        0.07100        0.87000
H         -0.18000       -2.16200        0.01500
H          0.82100        3.33600        0.00100
