13
13781-53-8.pdb
N          5.99100       -0.17000       -1.72400
C          5.02000       -0.11900       -0.92100
C          3.84900       -0.05700        0.04600
C          4.26800        0.62600        1.31200
C          4.82400       -0.01100        2.40900
S          5.17800        1.06300        3.69200
C          4.60200        2.40200        2.80100
C          4.15100        2.03700        1.55200
H          3.50000       -1.07500        0.25600
H          3.02100        0.48500       -0.42500
H          5.04700       -1.06400        2.52400
H          4.62600        3.39300        3.23400
H          3.75600        2.75300        0.84100
