22
138-59-0.pdb
O          0.84900       -0.08400       -0.02500
C          2.28500       -0.09000        0.07200
C          2.78300       -1.42400       -0.50400
C          3.63000       -1.38400       -1.73000
C          4.03900       -0.23600       -2.28900
C          3.68800        1.12800       -1.81000
O          4.91500        1.84900       -1.69800
C          2.82500        1.23000       -0.52700
O          3.50000        1.96900        0.51300
C          4.10800       -2.64300       -2.36800
O          3.41400       -3.75000       -2.04500
O          5.07300       -2.68800       -3.12100
H          0.50600       -0.77900        0.56500
H          2.49700       -0.09500        1.14900
H          1.90300       -2.04700       -0.70500
H          3.35800       -1.93700        0.27700
H          4.66600       -0.25800       -3.18200
H          3.13200        1.61100       -2.62300
H          5.39300        1.52100       -0.91900
H          1.96400        1.86100       -0.78400
H          4.25500        1.45000        0.83200
H          2.61800       -3.64700       -1.49900
