22
13816-33-6.pdb
C          0.94400       -0.22200        0.15000
C          2.46500       -0.13700       -0.00500
C          3.17100       -0.65900        1.25000
C          2.92600       -0.87000       -1.25300
C          3.60800       -0.18000       -2.26600
C          4.01400       -0.84100       -3.42900
C          3.74400       -2.20300       -3.59300
C          3.06800       -2.90000       -2.58900
C          2.66600       -2.23900       -1.42800
C          4.15700       -2.88500       -4.78200
N          4.49100       -3.44400       -5.74400
H          0.61000        0.34100        1.02700
H          0.60000       -1.25500        0.27000
H          0.44100        0.19400       -0.73100
H          2.72200        0.92600       -0.10400
H          2.95500       -1.71700        1.43200
H          2.85100       -0.09700        2.13400
H          4.25800       -0.55100        1.16100
H          3.82400        0.88200       -2.16100
H          4.53600       -0.28600       -4.20500
H          2.84600       -3.95900       -2.70300
H          2.13900       -2.80300       -0.66100
