27
13826-35-2.pdb
O          1.07500        0.37500       -0.42000
C          2.37400       -0.07700       -0.07000
C          2.74600        0.47500        1.27700
C          2.86000        1.85900        1.46500
C          3.26000        2.37800        2.69600
C          3.53700        1.51900        3.75900
C          3.35500        0.14200        3.61100
O          3.56800       -0.78300        4.60700
C          3.27900       -0.47100        5.91500
C          2.24400        0.38200        6.31800
C          2.04900        0.65600        7.67300
C          2.84900        0.03700        8.63200
C          3.83500       -0.86600        8.23900
C          4.04800       -1.11900        6.88200
C          2.99600       -0.37700        2.36200
H          0.86600       -0.01800       -1.28200
H          3.09000        0.26600       -0.82500
H          2.37500       -1.17200       -0.06700
H          2.63500        2.53700        0.64400
H          3.35200        3.45300        2.82800
H          3.87500        1.93900        4.70200
H          1.58700        0.85000        5.58800
H          1.27300        1.35300        7.97700
H          2.69500        0.25100        9.68700
H          4.44000       -1.37100        8.98700
H          4.81700       -1.82300        6.57800
H          2.90600       -1.45500        2.24500
