29
13820-09-2.pdb
C          4.91200       -2.67400        1.05400
C          4.41100       -1.30700        0.60800
C          4.87900       -0.98700       -0.81200
C          4.37300        0.38300       -1.29500
C          4.94800        0.78100       -2.68200
O          4.43500       -0.18300       -3.61500
C          4.90500        0.00700       -4.94200
O          4.57300        2.10700       -3.07100
C          3.18500        2.37500       -3.08200
O          6.37900        0.69700       -2.65400
C          7.00200        1.64900       -1.79700
H          4.57300       -2.89200        2.07300
H          6.00300       -2.71500        1.04400
H          4.53200       -3.46400        0.39600
H          4.78100       -0.54600        1.30400
H          3.31400       -1.28900        0.65500
H          4.52700       -1.76800       -1.49500
H          5.97400       -1.01500       -0.83300
H          4.61200        1.15300       -0.55200
H          3.27700        0.34200       -1.34200
H          4.43300       -0.74700       -5.57600
H          5.98900       -0.13000       -5.00200
H          4.62400        0.99100       -5.32700
H          3.00200        3.17800       -3.79800
H          2.87100        2.72200       -2.09500
H          2.58600        1.50700       -3.38600
H          8.08300        1.55500       -1.91400
H          6.76600        1.45100       -0.74800
H          6.71700        2.67200       -2.05900
