22
139-13-9.pdb
O          2.63300        1.02000        0.42900
C          2.18500       -0.19000        0.00900
O          1.09400       -0.63300        0.32000
C          3.17100       -0.89800       -0.91800
N          4.62700       -0.62400       -0.57200
C          4.87400       -1.19600        0.81200
C          6.31300       -0.97500        1.27700
O          6.80400        0.23600        0.92100
O          6.95800       -1.78500        1.92200
C          5.44900       -1.46800       -1.53000
C          5.20800       -1.10400       -2.99400
O          5.46800        0.19100       -3.27400
O          4.79400       -1.89100       -3.83100
H          3.51300        1.19500        0.04500
H          2.95100       -0.51700       -1.92200
H          2.96100       -1.97400       -0.88700
H          4.65800       -2.27000        0.83700
H          4.24500       -0.69600        1.55500
H          6.13200        0.74600        0.43100
H          5.22400       -2.53500       -1.40700
H          6.52000       -1.33000       -1.34700
H          5.79700        0.68100       -2.49900
