16
13925-00-3.pdb
C          1.12100        0.49800       -0.31400
C          2.55200        0.04000       -0.08000
C          2.97700       -0.96800       -1.11000
C          2.78700       -2.33100       -0.90300
N          3.12400       -3.27000       -1.81900
C          3.65900       -2.79000       -2.96200
C          3.85000       -1.43700       -3.18100
N          3.51400       -0.49900       -2.26500
H          0.83300        1.24200        0.43600
H          0.41900       -0.34100       -0.24800
H          1.00700        0.95200       -1.30400
H          2.65200       -0.38400        0.92500
H          3.22500        0.90500       -0.12400
H          2.34900       -2.71200        0.01400
H          3.93000       -3.52800       -3.70800
H          4.28000       -1.06700       -4.10400
