29
13957-31-8.pdb
O          1.62100        0.11900       -1.25900
C          2.23500        0.21500        0.01700
C          3.30800        1.31100        0.08900
O          4.38300        1.04800       -0.84100
C          4.24300        1.91600       -1.99700
C          3.07500        2.88500       -1.71000
O          3.37600        4.24900       -2.02100
C          2.85300        2.73000       -0.21700
O          3.72000        3.66300        0.47300
N          4.08700        1.13600       -3.23300
C          4.05400       -0.24600       -3.22700
C          3.90400       -0.97100       -4.33400
C          3.76500       -0.27500       -5.62500
S          3.55700       -1.03600       -7.09700
N          3.82400        1.09000       -5.56000
C          4.02200        1.85000       -4.42800
O          4.13700        3.06300       -4.53500
H          1.03300       -0.66200       -1.23400
H          2.69900       -0.75100        0.24000
H          1.44900        0.40400        0.75400
H          3.74500        1.26700        1.09300
H          5.18100        2.47300       -2.09200
H          2.18000        2.60000       -2.27600
H          3.92600        4.59100       -1.28900
H          1.82900        2.95600        0.08900
H          4.61100        3.27200        0.52600
H          4.15600       -0.74300       -2.26400
H          3.87800       -2.05100       -4.31000
H          3.74500        1.61700       -6.41900
