27
139705-74-1.pdb
N          2.33100       -0.12200       -0.07400
C          0.94100        0.01700        0.01600
C          0.23600        0.65300       -1.00500
C         -1.16200        0.67400       -1.00400
C         -1.88700        0.02000        0.00000
C         -1.17700       -0.65400        1.00000
C          0.22300       -0.67400        0.99300
C         -3.34100        0.00700        0.00800
C         -4.16400        0.60100       -0.92600
N         -5.44300        0.32700       -0.52100
C         -6.65000        0.69400       -1.10800
C         -7.80200        0.31900       -0.52300
C         -7.74200       -0.45700        0.70800
C         -6.56700       -0.81000        1.26700
C         -5.34600       -0.41800        0.64800
N         -4.09000       -0.62600        0.98000
H          2.78500        0.63000       -0.58300
H          2.77900       -0.31100        0.81600
H          0.76700        1.13900       -1.81900
H         -1.66500        1.19400       -1.81300
H         -1.71100       -1.18700        1.78500
H          0.74400       -1.24000        1.76000
H         -3.96700        1.17700       -1.81700
H         -6.60700        1.27200       -2.02200
H         -8.76800        0.57700       -0.94000
H         -8.68100       -0.74200        1.17100
H         -6.52000       -1.38500        2.18300
