18
139926-23-1.pdb
C          0.97400       -1.10100        0.38600
C          2.49000       -1.17900        0.37100
O          2.94100       -1.07800       -0.97300
C          4.28400       -1.19800       -1.14900
C          5.27500       -1.31200       -0.11900
C          6.55000       -1.42400       -0.61900
S          6.56900       -1.38700       -2.32100
C          4.85400       -1.21600       -2.41400
C          4.14900       -1.11100       -3.73000
O          2.88500       -0.97800       -3.73800
O          4.87700       -1.16200       -4.77700
H          0.59400       -1.18600        1.40800
H          0.53800       -1.90200       -0.22100
H          0.63100       -0.15200       -0.04000
H          2.79500       -2.13800        0.80700
H          2.89100       -0.35300        0.96900
H          5.07500       -1.31400        0.94300
H          7.47300       -1.52500       -0.06700
