42
14035-33-7.pdb
C          1.31700       -0.63200        0.66300
C          2.41900        0.08400       -0.07200
O          2.71100       -0.22900       -1.22700
C          3.15500        1.18800        0.61500
C          2.83100        1.60800        1.90800
C          3.55500        2.62000        2.57400
C          4.63200        3.20300        1.85200
O          5.45700        4.07300        2.50200
C          4.94400        2.86700        0.50900
C          4.20400        1.81500       -0.06200
C          6.05200        3.54200       -0.34200
C          7.37200        2.77100       -0.15600
C          5.69300        3.53400       -1.85700
C          6.30000        5.03300       -0.01000
C          3.17300        3.00800        4.02900
C          1.95300        2.21200        4.57300
C          4.33600        2.72700        5.00300
C          2.76500        4.49500        4.13700
H          0.88100       -1.39100        0.00700
H          0.52500        0.07100        0.93700
H          1.71900       -1.13400        1.54600
H          2.00900        1.11200        2.40600
H          4.98400        4.92100        2.54900
H          4.43700        1.44900       -1.06000
H          7.27900        1.72700       -0.48000
H          7.68600        2.76300        0.89400
H          8.18100        3.22500       -0.74000
H          5.69300        2.52600       -2.28600
H          6.42100        4.10600       -2.44500
H          4.70500        3.97900       -2.02900
H          6.78000        5.17800        0.96100
H          5.36600        5.60600       -0.02900
H          6.98100        5.49000       -0.73900
H          2.16000        1.13600        4.62000
H          1.06200        2.36500        3.95000
H          1.68400        2.52700        5.58800
H          4.62300        1.66900        4.98200
H          4.05100        2.97300        6.03300
H          5.23000        3.31600        4.78000
H          1.93700        4.73100        3.45800
H          3.58300        5.18400        3.91900
H          2.43200        4.73300        5.15500
