20
14062-34-1.pdb
N          1.13100        0.27000       -0.20300
N          2.53900        0.29600       -0.12700
C          3.15800        0.40800        1.11500
O          2.55600        0.55400        2.17500
C          4.64400        0.34500        1.09200
C          5.36700        0.91100        0.03300
C          6.75600        0.83700        0.02900
C          7.42400        0.22000        1.08800
C          6.71800       -0.28600        2.18600
N          7.39500       -1.00700        3.17800
C          5.32000       -0.25900        2.15800
H          0.82900        0.83300       -1.00000
H          0.77600        0.76000        0.63000
H          3.07200       -0.07800       -0.91000
H          4.86000        1.42400       -0.78100
H          7.32400        1.25800       -0.79900
H          8.50800        0.14500        1.05600
H          8.35800       -0.71400        3.31400
H          6.88800       -1.07000        4.05600
H          4.74900       -0.71100        2.96700
