29
14073-97-3.pdb
C          3.00800        0.43400        1.33900
C          2.34700       -0.04000        0.03900
C          0.82600       -0.10500        0.23700
C          2.78300        0.82100       -1.18100
C          2.38800        2.30300       -1.04800
C          2.62300        3.11300       -2.32300
C          1.88600        2.47700       -3.50300
C          2.01200        3.34000       -4.75500
C          2.43300        1.07400       -3.74600
C          2.29200        0.22000       -2.50500
O          1.94100       -0.95700       -2.60500
H          2.70800       -0.20200        2.17900
H          2.72700        1.46100        1.59200
H          4.09900        0.38500        1.25900
H          2.69100       -1.06900       -0.13400
H          0.40000        0.87100        0.48100
H          0.58000       -0.78200        1.06300
H          0.31900       -0.48700       -0.65300
H          3.88000        0.77300       -1.24600
H          2.96300        2.76800       -0.24100
H          1.33100        2.39700       -0.78300
H          3.69800        3.17900       -2.53100
H          2.26500        4.13700       -2.16200
H          0.82000        2.40400       -3.24900
H          3.05800        3.44500       -5.06400
H          1.60800        4.34300       -4.57800
H          1.45600        2.89700       -5.58700
H          3.49200        1.09800       -4.02300
H          1.88000        0.59400       -4.56400
