39
14098-44-3.pdb
C          3.75800       -1.02300        0.45000
C          3.20400       -2.06200       -0.53800
O          1.77800       -2.11600       -0.58100
C          1.18400       -2.77500        0.54100
C         -0.33700       -2.66000        0.42900
O         -0.69400       -1.30600        0.71200
C         -1.92100       -0.87200        0.27900
C         -2.99200       -1.72000       -0.01900
C         -4.21200       -1.18600       -0.43500
C         -4.36900        0.19300       -0.54600
C         -3.30900        1.04800       -0.23700
C         -2.08000        0.52300        0.17700
O         -0.98200        1.27100        0.50800
C         -1.03300        2.68300        0.30100
C          0.37200        3.23200        0.55000
O          1.18100        2.96400       -0.59900
C          2.44600        2.37400       -0.30500
C          2.35800        0.89300        0.08200
O          3.66800        0.32500       -0.02100
H          4.82800       -1.22000        0.56800
H          3.30300       -1.09400        1.44000
H          3.59100       -3.05900       -0.29700
H          3.53500       -1.80900       -1.55100
H          1.51900       -2.31000        1.47300
H          1.48000       -3.82900        0.53000
H         -0.80800       -3.31000        1.17500
H         -0.64500       -2.94800       -0.58300
H         -2.90500       -2.79700        0.07300
H         -5.04200       -1.84900       -0.67000
H         -5.32200        0.60600       -0.86800
H         -3.47200        2.11600       -0.32800
H         -1.73000        3.12500        1.02100
H         -1.33800        2.91000       -0.72700
H          0.80300        2.80200        1.46000
H          0.32800        4.31900        0.66300
H          2.97100        2.95300        0.46500
H          3.05100        2.46600       -1.21500
H          1.65900        0.37800       -0.58200
H          1.99400        0.79800        1.11200
