24
14090-87-0.pdb
C          0.93100       -0.05200        0.08900
C          2.45200       -0.00100        0.04900
C          2.92400        1.09200       -0.90500
C          4.44600        1.19600       -0.98900
C          4.87000        2.32300       -1.91900
O          4.04500        3.04700       -2.47900
C          6.34500        2.48700       -2.16700
C          6.76400        3.91200       -2.41800
C          6.30500        4.59300       -3.68200
O          7.51100        4.49400       -1.62700
H          0.58900       -0.83200        0.77500
H          0.52100       -0.26700       -0.90300
H          0.51800        0.90400        0.42800
H          2.84000       -0.97600       -0.27000
H          2.83500        0.18900        1.05900
H          2.51100        2.05500       -0.58100
H          2.52000        0.89800       -1.90700
H          4.87000        0.25900       -1.36700
H          4.86600        1.40000        0.00200
H          6.64100        1.86500       -3.01700
H          6.88900        2.13100       -1.28500
H          5.63200        3.95300       -4.25700
H          7.17500        4.81900       -4.30400
H          5.77800        5.51500       -3.42300
