46
14098-24-9.pdb
C          4.41900       -0.37100        0.63800
C          4.30400        1.09300        0.21600
O          3.07300        1.63100        0.70700
C          2.89000        2.99700        0.32700
C          1.43500        3.40100        0.57200
O          0.62900        2.86700       -0.48100
C         -0.76000        3.15500       -0.31500
C         -1.55200        2.40100       -1.38500
O         -1.62600        1.00500       -1.08800
C         -2.64300        0.51700       -0.31000
C         -3.68100        1.28700        0.22600
C         -4.69500        0.68700        0.97600
C         -4.67800       -0.68400        1.20300
C         -3.63700       -1.46100        0.69300
C         -2.61200       -0.87100       -0.05400
O         -1.55400       -1.56700       -0.59000
C         -1.33800       -2.90000       -0.11900
C         -0.00700       -3.41800       -0.66700
O          1.07300       -2.86400        0.08900
C          2.34700       -3.25300       -0.43400
C          3.45200       -2.51400        0.32100
O          3.53200       -1.16700       -0.15200
H          4.16300       -0.47400        1.69800
H          5.44200       -0.72600        0.46900
H          4.32700        1.17400       -0.87600
H          5.13100        1.66700        0.64800
H          3.14100        3.13000       -0.73200
H          3.55600        3.61000        0.94200
H          1.34800        4.49200        0.55600
H          1.08700        3.01300        1.53500
H         -0.90100        4.23300       -0.44600
H         -1.08300        2.86400        0.69100
H         -1.02000        2.47800       -2.34100
H         -2.54100        2.83800       -1.55200
H         -3.73700        2.35900        0.08100
H         -5.50200        1.29300        1.38000
H         -5.47300       -1.15300        1.77800
H         -3.65800       -2.52800        0.88800
H         -2.14200       -3.54200       -0.49700
H         -1.31300       -2.91700        0.97700
H          0.10200       -3.14400       -1.72200
H          0.02900       -4.50800       -0.56400
H          2.39600       -3.01600       -1.50300
H          2.46100       -4.33200       -0.28900
H          4.41600       -3.00000        0.13500
H          3.23700       -2.51800        1.39500
