44
141-04-8.pdb
C          0.76800        0.55400       -0.57600
C          2.14200       -0.03000       -0.91200
C          2.04800       -0.90100       -2.16400
C          3.15400        1.11200       -1.05900
O          4.49200        0.64900       -1.30100
C          4.99700        0.92700       -2.53800
O          4.33600        1.28600       -3.50400
C          6.50500        0.79300       -2.52500
C          7.11800        1.25600       -3.85000
C          8.64600        1.23600       -3.81100
C          9.25400        1.67700       -5.14600
C         10.76200        1.76800       -5.07400
O         11.44400        1.42300       -4.11800
O         11.24400        2.34700       -6.21000
C         12.57800        2.87500       -6.12700
C         13.60000        2.04600       -6.91500
C         13.25400        1.97300       -8.40300
C         14.99100        2.66000       -6.73400
H          0.02700       -0.23700       -0.42600
H          0.40900        1.20500       -1.38100
H          0.81300        1.15100        0.34200
H          2.46100       -0.67800       -0.08500
H          1.77300       -0.30700       -3.04200
H          1.28700       -1.68000       -2.03500
H          2.99800       -1.40200       -2.37100
H          3.19900        1.66800       -0.11600
H          2.82200        1.82900       -1.81900
H          6.76700       -0.25100       -2.32500
H          6.88700        1.42100       -1.71100
H          6.77400        2.27400       -4.07700
H          6.75700        0.61400       -4.66200
H          8.99800        0.22800       -3.56200
H          8.99700        1.90000       -3.01000
H          8.87400        2.67400       -5.40100
H          8.97700        0.97600       -5.94100
H         12.89900        2.98300       -5.08400
H         12.52900        3.89000       -6.53700
H         13.61000        1.02100       -6.52500
H         13.19200        2.97300       -8.84600
H         12.29600        1.46900       -8.56200
H         14.01900        1.41300       -8.95200
H         15.02000        3.69100       -7.10500
H         15.75200        2.08600       -7.27300
H         15.27300        2.67800       -5.67500
