38
141-03-7.pdb
C          2.51100        1.73500        0.15800
C          3.29800        1.19300        1.33700
C          3.89200       -0.19200        1.06500
C          4.66800       -0.66200        2.28900
O          5.17600       -1.99300        2.14800
C          6.53600       -2.06600        2.10500
O          7.26300       -1.28200        1.51500
C          6.99700       -3.16500        3.03200
C          8.51600       -3.23600        3.10700
C          8.97400       -4.14400        4.22100
O          8.24900       -4.71700        5.01600
O         10.33600       -4.09900        4.29500
C         10.83800       -3.92500        5.62400
C         11.61600       -5.13600        6.12200
C         12.20800       -4.83200        7.50200
C         12.99300       -5.99900        8.07000
H          2.10900        2.72500        0.39900
H          1.66900        1.08000       -0.08700
H          3.14600        1.83300       -0.72700
H          2.63900        1.14500        2.21300
H          4.10200        1.89700        1.58200
H          4.55200       -0.16400        0.19000
H          3.09700       -0.91000        0.82700
H          3.99500       -0.69600        3.15200
H          5.46500        0.04900        2.53800
H          6.57900       -4.12100        2.71000
H          6.59700       -2.92200        4.02700
H          8.91400       -2.24000        3.33200
H          8.93800       -3.57200        2.15100
H         10.03900       -3.66100        6.32600
H         11.50800       -3.06000        5.57200
H         12.41200       -5.38800        5.41100
H         10.95600       -6.01100        6.17000
H         11.40300       -4.57000        8.19900
H         12.86800       -3.95800        7.43400
H         12.35700       -6.88100        8.18800
H         13.39400       -5.73700        9.05500
H         13.83500       -6.26000        7.42100
