25
141-73-1.pdb
C          1.01800       -0.10500       -0.27700
O          2.38400        0.14200        0.02200
C          2.69200        1.24400        0.91000
C          2.15100        2.55800        0.32900
C          2.10300        0.99200        2.30500
C          4.25000        1.23500        0.96800
C          4.94500        2.28300        1.85200
C          6.46200        2.10000        1.85500
O          4.68700        3.60500        1.38600
H          0.97900       -0.92100       -1.00700
H          0.53600        0.75900       -0.73400
H          0.46800       -0.42900        0.61000
H          1.05800        2.55000        0.26100
H          2.53300        2.71900       -0.68400
H          2.40000        3.42200        0.94700
H          1.01500        0.87500        2.27000
H          2.31400        1.81800        2.99100
H          2.50300        0.06700        2.73600
H          4.62000        1.33600       -0.06300
H          4.57400        0.23900        1.29200
H          4.58400        2.22100        2.87900
H          6.84900        2.00400        0.83500
H          6.75100        1.20800        2.42000
H          6.95400        2.97200        2.29700
H          5.04200        3.68100        0.48600
