27
14107-97-2.pdb
C          1.10500        0.09800        0.29000
O          2.47600        0.17100       -0.08200
C          3.06300        1.39700        0.05000
C          2.68400        2.38400        0.94100
C          3.36400        3.62100        1.02300
O          2.75300        4.36800        1.99300
C          3.16900        5.65600        2.38500
C          4.46900        3.88900        0.17400
C          5.23100        5.17800        0.19100
C          4.86000        2.85600       -0.72600
O          5.87300        2.80600       -1.64700
C          6.76200        3.87100       -1.90800
C          4.15700        1.63700       -0.76100
H          0.74600       -0.90700        0.04700
H          0.50600        0.81600       -0.28200
H          0.96900        0.24000        1.36600
H          1.85700        2.22000        1.62500
H          2.51900        5.97800        3.20500
H          3.02800        6.37500        1.57400
H          4.18900        5.64200        2.78100
H          4.88800        5.93400        0.88200
H          5.16600        5.66700       -0.78400
H          6.27100        5.00000        0.47700
H          7.44700        3.54100       -2.69600
H          7.38000        4.10000       -1.03800
H          6.23900        4.74600       -2.30000
H          4.47400        0.86000       -1.45500
