32
14113-01-0.pdb
C          2.39700       -1.91000        1.15100
C          2.42600       -0.70000        0.23500
O          2.96200       -1.12200       -1.02600
C          4.31900       -1.07400       -1.11100
O          5.05700       -0.48100       -0.34000
C          4.77100       -1.93200       -2.26500
C          6.29400       -2.00600       -2.34200
C          6.79300       -2.97200       -3.41500
C          6.35200       -2.57300       -4.82300
C          6.90900       -3.53300       -5.87200
C          6.44000       -3.14200       -7.27200
C          6.96500       -4.08900       -8.32500
O          6.56300       -3.74700       -9.57100
O          7.67300       -5.06200       -8.11200
H          2.00100       -1.65400        2.13600
H          3.40100       -2.33200        1.27100
H          1.77900       -2.70000        0.71000
H          3.00000        0.12500        0.67300
H          1.41000       -0.33300        0.05800
H          4.34800       -1.51200       -3.18200
H          4.36500       -2.93800       -2.10700
H          6.69200       -2.33300       -1.37200
H          6.70400       -1.00600       -2.52300
H          6.44100       -3.98600       -3.18800
H          7.88800       -3.00100       -3.37100
H          6.68900       -1.55200       -5.03700
H          5.25900       -2.57800       -4.89200
H          6.58200       -4.55500       -5.64500
H          8.00500       -3.53400       -5.83100
H          6.79200       -2.13200       -7.51000
H          5.34500       -3.15900       -7.31400
H          6.00200       -2.95000       -9.59500
