23
14159-61-6.pdb
C          2.88000        0.19900        1.39100
C          2.43200       -0.10000       -0.04200
C          0.90400       -0.17800       -0.09900
C          2.96800        0.96300       -1.02300
C          4.47400        1.03400       -1.08000
C          5.15600        2.20700       -0.73600
C          6.54700        2.24500       -0.81000
C          7.21300        1.10500       -1.22200
N          6.59500       -0.04900       -1.54800
C          5.24400       -0.05600       -1.47200
H          2.52200       -0.57100        2.07800
H          2.49700        1.16800        1.72800
H          3.97200        0.22200        1.46800
H          2.82200       -1.08600       -0.32400
H          0.44200        0.78000        0.16400
H          0.53100       -0.93400        0.60200
H          0.56000       -0.45900       -1.10000
H          2.56400        1.94700       -0.74700
H          2.60100        0.75900       -2.03700
H          4.61400        3.08700       -0.40600
H          7.09500        3.14400       -0.55200
H          8.29700        1.08900       -1.30700
H          4.78500       -1.00400       -1.74100
