48
141556-45-8.pdb
C          2.15000        1.96000        0.02400
C          1.04900        0.94000        0.04400
C          1.24200       -0.31200        0.62500
C          0.21900       -1.27700        0.65100
C          0.59200       -2.62300        1.20800
C         -1.04700       -0.93200        0.12200
N         -2.12700       -1.93900        0.15000
C         -2.40700       -2.87500        1.13400
C         -3.38000       -3.69700        0.63700
N         -3.84700       -3.12900       -0.53500
C         -3.00800       -2.12800       -0.85100
C         -5.06400       -3.49600       -1.29600
C         -6.20900       -3.94300       -0.59400
C         -6.37100       -4.02400        0.90000
C         -7.33800       -4.34400       -1.33500
C         -7.37000       -4.25400       -2.72300
C         -8.57500       -4.67600       -3.50800
C         -6.24800       -3.75300       -3.39000
C         -5.07400       -3.39100       -2.70600
C         -3.92900       -2.94400       -3.56700
C         -1.27200        0.33500       -0.45800
C         -2.56500        0.86000       -1.02100
C         -0.19700        1.24500       -0.50500
H          3.08600        1.54500        0.41100
H          1.87500        2.81600        0.64900
H          2.33400        2.30200       -0.99900
H          2.21900       -0.55000        1.04700
H          1.68000       -2.74300        1.26900
H          0.23200       -3.42800        0.56200
H          0.21000       -2.74000        2.22500
H         -1.86900       -2.86300        2.06500
H         -3.83000       -4.59800        1.02300
H         -3.03100       -1.53800       -1.74800
H         -5.73700       -3.31500        1.43600
H         -6.17000       -5.04300        1.24600
H         -7.39500       -3.76200        1.19000
H         -8.21900       -4.72000       -0.81400
H         -9.36700       -5.05400       -2.85500
H         -8.30200       -5.47600       -4.20400
H         -8.97700       -3.82900       -4.07300
H         -6.28800       -3.67100       -4.47700
H         -4.07100       -3.24600       -4.61100
H         -2.98900       -3.39900       -3.24200
H         -3.85600       -1.85300       -3.57200
H         -3.44300        0.29700       -0.70200
H         -2.51600        0.87000       -2.11500
H         -2.73800        1.88600       -0.67500
H         -0.34100        2.22700       -0.96100
