27
141699-55-0.pdb
C          3.37000       -1.46200       -0.02100
C          2.66400       -0.10200        0.04300
C          2.87800        0.73000       -1.22700
C          1.15600       -0.35700        0.20400
O          3.05900        0.65400        1.21800
C          4.35600        1.02600        1.37700
O          5.27600        0.74100        0.62200
N          4.52700        1.77800        2.49800
C          5.65300        2.63700        2.82400
C          4.80900        3.07600        4.04300
O          5.09200        2.40100        5.29200
C          3.57500        2.57000        3.25600
H          3.00500       -2.05900       -0.86400
H          3.20200       -2.02800        0.90300
H          4.45300       -1.36700       -0.13500
H          2.49600        0.21400       -2.11300
H          3.93500        0.95100       -1.40300
H          2.37100        1.69800       -1.14200
H          0.75400       -0.93500       -0.63500
H          0.60200        0.58600        0.27000
H          0.94800       -0.90500        1.13100
H          5.83500        3.41000        2.07200
H          6.57300        2.09500        3.05000
H          4.81300        4.15800        4.20600
H          5.10000        1.45400        5.06300
H          3.06300        3.32500        2.65100
H          2.85700        1.98100        3.83000
