36
141993-16-0.pdb
C          4.14100        1.11100        1.09700
C          3.15200        1.46900        0.02400
O          3.48300        2.12100       -0.96300
N          1.80800        1.10100        0.23100
C          0.64100        1.48700       -0.56500
C          0.48200        2.84900       -1.23600
C         -0.86800        3.37000       -0.62600
C         -0.46800        3.96400        0.73100
C         -0.16900        2.70300        1.54200
C         -0.46600        1.53600        0.52600
C         -0.43200        0.18400        1.21000
S          1.31700       -0.28300        1.12600
O          1.89200       -0.23500        2.44800
O          1.44400       -1.42600        0.25800
C         -1.66900        2.06600       -0.27000
C         -2.05900        1.23800       -1.51400
C         -2.93400        2.21700        0.58900
H          4.39000        0.04900        1.04300
H          3.73800        1.36100        2.08400
H          5.05400        1.69900        0.96700
H          0.48100        0.70700       -1.31800
H          0.36400        2.71800       -2.31800
H          1.31700        3.53800       -1.08500
H         -1.39000        4.08100       -1.27100
H          0.41100        4.61300        0.66000
H         -1.27600        4.55000        1.18100
H         -0.82000        2.65400        2.42200
H          0.85900        2.71100        1.91900
H         -1.01200       -0.57500        0.68300
H         -0.73300        0.23100        2.26000
H         -1.81800        0.17800       -1.38500
H         -1.57200        1.58800       -2.42900
H         -3.13500        1.29500       -1.71300
H         -2.77500        2.69700        1.55700
H         -3.35500        1.22600        0.80200
H         -3.69700        2.79800        0.06200
