17
14191-95-8.pdb
O          2.27500        0.09000        0.01600
C          0.91200        0.05300       -0.00500
C          0.21800       -1.15200       -0.01200
C         -1.18000       -1.14100       -0.03500
C         -1.88500        0.07300       -0.05500
C         -3.39600        0.08700       -0.04400
C         -3.94000        0.09500        1.37600
N         -4.39000        0.10100        2.55300
C         -1.16300        1.27700       -0.03500
C          0.23300        1.26400       -0.01400
H          2.61100       -0.82100        0.03200
H          0.74200       -2.10200        0.00500
H         -1.71300       -2.09000       -0.02800
H         -3.78400       -0.78900       -0.57700
H         -3.76700        0.96900       -0.57900
H         -1.67900        2.23500       -0.02800
H          0.78900        2.19800        0.00400
