24
142-30-3.pdb
C          0.89600        0.03000       -0.02400
C          2.42300        0.02300        0.00300
C          2.95000       -1.09500        0.90000
O          2.91200       -0.17200       -1.32000
C          2.92900        1.36400        0.50800
C          3.36400        2.51400        0.94200
C          3.87100        3.85500        1.44800
C          3.91700        3.84600        2.97500
C          5.25200        4.13800        0.86400
O          2.98100        4.88300        1.02200
H          0.50600       -0.92100       -0.40500
H          0.51900        0.81300       -0.69300
H          0.47300        0.20300        0.97200
H          2.61500       -2.07500        0.54200
H          2.62100       -0.97300        1.93700
H          4.04700       -1.11800        0.89200
H          2.57200       -1.02400       -1.63500
H          4.58700        3.06800        3.35600
H          2.92000        3.67200        3.39700
H          4.25400        4.81500        3.36100
H          5.98000        3.37200        1.15200
H          5.62500        5.11300        1.19700
H          5.21400        4.17500       -0.23100
H          2.08800        4.61000        1.29500
