59
142-91-6.pdb
C          1.02700        0.05500        0.01100
C          2.54500        0.05100       -0.00000
C          3.07900       -0.87900       -1.08400
C          4.60400       -0.88400       -1.09800
C          5.12600       -1.81800       -2.18300
C          6.64900       -1.82500       -2.19700
C          7.16800       -2.75700       -3.28300
C          8.69000       -2.76500       -3.29400
C          9.20600       -3.69900       -4.38000
C         10.72800       -3.71300       -4.39600
C         11.23800       -4.64900       -5.48500
C         12.76000       -4.66700       -5.50500
C         13.28300       -5.60200       -6.59200
C         14.80600       -5.59700       -6.58700
C         15.39900       -6.51500       -7.65200
C         16.90800       -6.45400       -7.58900
O         17.54400       -5.78000       -6.79400
O         17.45500       -7.24900       -8.55100
C         18.89600       -7.24000       -8.59600
C         19.45700       -8.16200       -7.51600
C         19.32700       -7.72600       -9.97500
H          0.65500        0.72500        0.79100
H          0.63600       -0.94900        0.20500
H          0.63200        0.39700       -0.95100
H          2.91500       -0.26900        0.98100
H          2.91100        1.07000       -0.17000
H          2.70400       -0.56000       -2.06400
H          2.71000       -1.89800       -0.91300
H          4.98400       -1.20500       -0.12100
H          4.97700        0.13200       -1.27400
H          4.74900       -1.49700       -3.16200
H          4.75300       -2.83500       -2.01000
H          7.02700       -2.14800       -1.21900
H          7.02400       -0.80900       -2.37000
H          6.79100       -2.43300       -4.26100
H          6.79200       -3.77300       -3.11100
H          9.06700       -3.08800       -2.31600
H          9.06600       -1.74900       -3.46800
H          8.82800       -3.37500       -5.35700
H          8.82800       -4.71300       -4.20600
H         11.10600       -4.03700       -3.41800
H         11.10700       -2.69800       -4.56900
H         10.85800       -4.32200       -6.46000
H         10.85700       -5.66300       -5.31000
H         13.13800       -4.98700       -4.52600
H         13.13600       -3.65100       -5.67800
H         12.91300       -5.27700       -7.57200
H         12.91000       -6.61900       -6.42100
H         15.16900       -5.90500       -5.59800
H         15.16300       -4.57100       -6.74600
H         15.08000       -6.19500       -8.65000
H         15.07100       -7.54600       -7.48100
H         19.26800       -6.21700       -8.46100
H         19.05500       -9.17500       -7.62400
H         19.17900       -7.82100       -6.51500
H         20.54900       -8.20800       -7.56800
H         18.94600       -8.73400      -10.17400
H         20.41900       -7.74300      -10.06200
H         18.92600       -7.07500      -10.75800
