16
142-26-7.pdb
C          1.14600       -0.03200       -0.09600
C          2.64500        0.09600       -0.06400
O          3.22700        1.13900       -0.33700
N          3.28600       -1.06400        0.30500
C          4.73800       -1.14900        0.36000
C          5.28800       -0.71100        1.71600
O          4.80000       -1.57300        2.74300
H          0.70400        0.91100       -0.42400
H          0.77400       -0.26900        0.90500
H          0.85500       -0.82000       -0.79500
H          2.74500       -1.88500        0.54200
H          5.16700       -0.53200       -0.43600
H          4.99100       -2.19800        0.17000
H          4.99900        0.31700        1.96200
H          6.38000       -0.77300        1.71700
H          3.84200       -1.41100        2.79700
