30
142-09-6.pdb
C          0.92200        0.05700       -0.06200
C          2.44200        0.04300       -0.05300
C          2.97800       -0.95700        0.97200
C          4.50700       -0.97800        0.98900
C          5.03700       -1.98100        2.01400
C          6.56400       -2.00300        2.04600
O          7.02800       -2.95700        3.01900
C          7.00200       -2.49100        4.29900
O          6.62500       -1.37700        4.62500
C          7.48300       -3.50800        5.27800
C          7.94200       -4.86900        4.85900
C          7.49500       -3.15900        6.57600
H          0.55000        0.77600       -0.79900
H          0.52800        0.34200        0.91900
H          0.52300       -0.93000       -0.31800
H          2.81100        1.04900        0.17600
H          2.80600       -0.21500       -1.05500
H          2.60000       -1.95900        0.73700
H          2.60200       -0.69500        1.96900
H          4.88400        0.02500        1.22500
H          4.88100       -1.23700       -0.00800
H          4.66700       -2.98900        1.79100
H          4.65800       -1.73400        3.01000
H          6.95900       -1.00800        2.28400
H          6.95600       -2.28900        1.06500
H          7.88700       -5.03800        3.78300
H          7.32900       -5.63800        5.34300
H          8.98300       -5.02500        5.16200
H          7.16900       -2.17900        6.91600
H          7.83500       -3.85100        7.34200
