20
14227-95-3.pdb
O          1.30600        0.29800        1.04200
C          2.32700        0.06000        0.39400
C          2.89000       -1.34200        0.34600
C          2.37300       -2.07300       -0.80800
N          2.01400       -2.67500       -1.73200
N          3.00400        1.04800       -0.28800
C          2.55600        2.43200       -0.25400
C          3.03500        3.00400       -1.57600
C          4.34800        2.26900       -1.81000
C          4.08900        0.87700       -1.24400
H          2.60400       -1.84700        1.27700
H          3.98300       -1.31200        0.34300
H          3.06200        2.91800        0.59000
H          1.47400        2.51700       -0.11500
H          3.15300        4.09100       -1.55000
H          2.32100        2.75300       -2.37000
H          5.15500        2.75800       -1.25400
H          4.63200        2.24000       -2.86700
H          4.97200        0.46900       -0.74300
H          3.76300        0.18000       -2.02200
