26
14227-18-0.pdb
C          1.48100        0.28600        0.71500
O          2.64500       -0.04800       -0.03600
C          3.14400        0.91500       -0.86900
C          2.64800        2.21100       -1.00000
C          3.23200        3.10700       -1.90600
O          2.77300        4.38500       -2.10600
C          1.74800        4.86400       -1.24000
C          4.32400        2.67100       -2.68300
C          4.85900        1.38400       -2.54100
O          5.88500        0.81300       -3.24100
C          7.06500        1.59100       -3.42400
C          4.24300        0.51200       -1.63700
N          4.82500        3.56000       -3.70700
O          5.42900        4.57600       -3.33300
O          4.65300        3.22000       -4.88600
H          1.20600       -0.58400        1.31800
H          0.63800        0.51500        0.05500
H          1.68300        1.11600        1.40100
H          1.79800        2.51800       -0.40800
H          1.58600        5.92300       -1.46000
H          2.04200        4.78700       -0.18800
H          0.80700        4.33600       -1.42600
H          7.92600        0.92700       -3.29600
H          7.16600        2.40600       -2.70000
H          7.09300        1.97400       -4.44800
H          4.61900       -0.50600       -1.53400
