28
142253-55-2.pdb
C          3.42200        0.93800        1.02300
C          2.70200        0.12600       -0.06300
C          2.89100       -1.38600        0.11700
C          1.19900        0.43400        0.04000
O          3.10000        0.54600       -1.39200
C          4.40900        0.43000       -1.76800
O          5.28400       -0.10300       -1.09400
N          4.64600        0.97000       -3.00200
C          3.85000        1.91200       -3.76800
C          5.14600        2.65800       -4.09900
C          5.92500        1.51400       -3.44100
C          5.30700        4.00400       -3.44600
O          4.26100        4.70900       -3.29000
O          6.48600        4.35900       -3.13800
H          3.06400        0.67100        2.02300
H          3.25800        2.01200        0.87400
H          4.50500        0.78700        1.01200
H          2.49500       -1.72600        1.07900
H          3.94200       -1.68400        0.07200
H          2.37900       -1.93400       -0.68300
H          0.80200        0.17000        1.02800
H          0.63100       -0.11800       -0.71700
H          1.00200        1.49700       -0.13600
H          3.09500        2.44700       -3.18600
H          3.37200        1.43600       -4.63000
H          5.33800        2.73500       -5.17600
H          6.59900        1.77700       -2.62000
H          6.44000        0.84300       -4.13700
