23
14315-97-0.pdb
C          0.88600        0.16100       -0.15200
O          2.29100        0.07200        0.03700
C          2.69300       -1.23000        0.47100
C          4.21200       -1.23100        0.54900
C          4.78900       -2.57100        1.00900
O          4.41400       -3.60900        0.10400
C          4.70000       -4.90400        0.61700
O          6.21200       -2.49600        1.16800
C          6.92400       -2.29200       -0.05000
H          0.65300        1.16100       -0.52700
H          0.36300        0.01100        0.79800
H          0.54900       -0.57400       -0.89000
H          2.34300       -1.97800       -0.24800
H          2.25400       -1.43700        1.45300
H          4.55900       -0.42900        1.21200
H          4.58900       -0.96900       -0.44600
H          4.37400       -2.80000        2.00000
H          4.90900       -5.56500       -0.22900
H          3.82300       -5.28600        1.14800
H          5.56800       -4.91500        1.28400
H          7.99200       -2.38600        0.16700
H          6.75000       -1.28500       -0.44000
H          6.66500       -3.04200       -0.79900
