18
1436-43-7.pdb
N          1.04300        0.21700        0.00300
C          2.20300        0.17900        0.02300
C          3.63700        0.06700        0.02700
C          4.24200       -1.18000       -0.00100
C          5.63000       -1.23400       -0.06100
C          6.36900       -0.04600       -0.11600
C          7.76800       -0.05800       -0.25100
C          8.47400        1.13800       -0.35800
C          7.79100        2.34700       -0.28600
C          6.40200        2.35500       -0.12400
C          5.66700        1.17900       -0.06200
N          4.32600        1.23500        0.02000
H          3.65500       -2.09300        0.00300
H          6.12900       -2.20000       -0.09300
H          8.31200       -0.99900       -0.29700
H          9.55100        1.12600       -0.50200
H          8.33300        3.28600       -0.36700
H          5.87800        3.30700       -0.06500
