26
14360-50-0.pdb
C          0.91400       -0.04600        0.06100
C          2.43400       -0.03900        0.07400
C          2.98300        0.22800        1.47500
C          4.51200        0.23100        1.47000
C          5.07500        0.50400        2.86200
C          6.59900        0.51800        2.88100
O          7.26300        0.30900        1.86700
C          7.20700        0.79600        4.16700
O          6.40800        0.98500        5.26200
C          7.22400        1.22900        6.31800
C          8.54100        1.20400        5.92500
C          8.53200        0.92100        4.53800
H          0.54600       -0.23800       -0.95100
H          0.51500        0.91900        0.39100
H          0.52000       -0.82500        0.72100
H          2.79600        0.72800       -0.62000
H          2.80100       -1.00600       -0.29000
H          2.61700       -0.53900        2.16800
H          2.61300        1.19500        1.83800
H          4.87700        0.99300        0.77000
H          4.88100       -0.73600        1.10600
H          4.72700       -0.26900        3.55800
H          4.71800        1.47800        3.21600
H          6.72600        1.39900        7.26300
H          9.40000        1.37000        6.56000
H          9.38200        0.82100        3.87600
