23
14377-68-5.pdb
N          0.99100        0.05000        0.39400
C          2.13700        0.04200        0.20800
C          3.58300        0.03700        0.01100
C          4.32900       -1.04500        0.87900
C          5.39400        0.01500        1.20300
C          4.33100        1.08800        0.91700
C          3.90900        0.05900       -1.56900
C          4.03100        1.26600       -2.29200
C          4.36100        1.29100       -3.65100
C          4.56800        0.10100       -4.33800
C          4.42000       -1.11000       -3.67400
C          4.08800       -1.12600       -2.31600
H          4.71500       -1.92700        0.36000
H          3.77400       -1.38900        1.76100
H          6.23700        0.02900        0.50300
H          5.78400       -0.00400        2.22400
H          4.71600        1.98900        0.43000
H          3.78000        1.39900        1.81300
H          3.86600        2.21600       -1.78600
H          4.45800        2.24200       -4.16800
H          4.83700        0.11800       -5.39100
H          4.56500       -2.04500       -4.20900
H          3.97000       -2.09300       -1.83100
