15
14389-12-9.pdb
N         -0.41700        0.86400       -0.53600
N          0.38700        0.88500        0.54700
N          0.68400       -0.38400        0.91100
C          0.03500       -1.16300        0.00900
N         -0.65100       -0.42000       -0.89600
C          0.07300       -2.67000        0.01000
C          0.79400       -3.35400        0.98900
C          0.79600       -4.73700        0.94600
N          0.14500       -5.46700        0.01100
C         -0.54200       -4.77200       -0.92400
C         -0.61200       -3.39100       -0.96700
H          1.33700       -2.82200        1.76300
H          1.34000       -5.31300        1.68800
H         -1.05500       -5.37500       -1.66600
H         -1.18200       -2.88800       -1.74200
