27
1439-07-2.pdb
O          0.03000        0.56300        0.03800
C          0.75600       -0.65600        0.24600
C         -0.69500       -0.65400       -0.20400
C         -1.74000       -1.10200        0.78900
C         -2.36200       -0.21600        1.68500
C         -3.30800       -0.66200        2.61400
C         -3.66000       -2.00800        2.65700
C         -3.06800       -2.90500        1.77400
C         -2.12100       -2.45400        0.85200
C          1.84900       -1.03600       -0.72000
C          2.59800       -0.07400       -1.41900
C          3.66500       -0.44000       -2.24600
C          4.00400       -1.78200       -2.39200
C          3.26700       -2.75700       -1.72800
C          2.20000       -2.38500       -0.90600
H          0.95800       -0.90800        1.28400
H         -0.90800       -0.86400       -1.24900
H         -2.09500        0.83900        1.66900
H         -3.76600        0.04300        3.30300
H         -4.39500       -2.35700        3.37900
H         -3.34200       -3.95700        1.80100
H         -1.66600       -3.17000        0.17000
H          2.35500        0.98100       -1.30400
H          4.23700        0.32600       -2.76200
H          4.84500       -2.06600       -3.01900
H          3.52800       -3.80700       -1.83800
H          1.64400       -3.16000       -0.38200
