28
144-83-2.pdb
N          2.26800        0.43200       -0.22100
C          0.88600        0.21400       -0.17700
C          0.23000        0.09300        1.05400
C         -1.16600        0.02400        1.11800
C         -1.91300        0.13000       -0.05800
C         -1.27400        0.27300       -1.29100
C          0.12000        0.34800       -1.33900
S         -3.69100        0.05000        0.00600
O         -4.16900       -0.40000       -1.28500
O         -4.04100       -0.66700        1.21500
N         -4.16400        1.65200        0.24900
C         -3.78900        2.56100       -0.75800
C         -4.48200        2.69000       -1.94800
C         -4.00800        3.61700       -2.87400
C         -2.85500        4.34100       -2.58400
C         -2.22700        4.11700       -1.36900
N         -2.68000        3.24800       -0.43900
H          2.77500        0.01800        0.55500
H          2.69000        0.20600       -1.11700
H          0.80500        0.05300        1.97600
H         -1.65200       -0.09700        2.08300
H         -1.85000        0.36000       -2.20900
H          0.60500        0.51500       -2.29800
H         -3.81400        1.97600        1.14700
H         -5.37100        2.10400       -2.14700
H         -4.53300        3.77300       -3.81300
H         -2.45700        5.06400       -3.28700
H         -1.31500        4.64500       -1.10300
