38
144060-53-7.pdb
C          1.03700        0.04300       -0.42100
C          2.55400       -0.02600       -0.60200
C          2.90100       -0.77800       -1.88800
C          3.15100        1.39100       -0.58900
O          4.56700        1.32300       -0.76700
C          5.21200        2.39300       -1.33200
C          6.36000        2.02000       -2.04200
C          7.18900        2.97400       -2.64200
C          6.90600        4.33900       -2.53300
C          5.74800        4.71100       -1.83500
C          4.90300        3.75600       -1.23000
C          3.77400        4.26500       -0.51400
N          2.84700        4.69300        0.04200
C          7.77100        5.38300       -3.11300
S          9.45900        5.13200       -3.32400
C          9.64700        6.73100       -3.92000
C         10.93900        7.25000       -4.32800
O         11.95100        6.35400       -4.18200
O         11.15500        8.37100       -4.76400
C          8.41200        7.36500       -3.91600
C          8.08800        8.76200       -4.31800
N          7.35700        6.58400       -3.45300
H          0.59900       -0.96000       -0.39800
H          0.56500        0.59900       -1.23900
H          0.77900        0.54300        0.51900
H          2.98300       -0.59400        0.23400
H          2.52200       -0.25200       -2.77000
H          2.46500       -1.78300       -1.87700
H          3.98500       -0.89200       -1.99900
H          2.94400        1.84200        0.38900
H          2.68100        1.98300       -1.38300
H          6.61600        0.96500       -2.13700
H          8.05600        2.62400       -3.19700
H          5.50300        5.77200       -1.74000
H         11.64600        5.50000       -3.82500
H          8.95700        9.32300       -4.66400
H          7.66300        9.30000       -3.46500
H          7.34800        8.75900       -5.12500
