23
14438-32-5.pdb
C          0.98000       -0.04400        0.05800
C          2.48000       -0.01000        0.06600
C          3.22400       -1.19400        0.08700
C          4.62800       -1.17600        0.10800
C          5.36700       -2.48800        0.12900
C          5.31600        0.05700        0.08600
N          6.71500        0.07500        0.29400
C          4.56200        1.25600        0.09400
C          3.15700        1.21500        0.05500
C          5.27400        2.56600        0.03000
O          4.61600        3.59700        0.60800
O          6.36800        2.70200       -0.49500
H          0.60200       -1.07300        0.05400
H          0.59500        0.45900       -0.83500
H          0.58800        0.45100        0.95100
H          2.70100       -2.15100        0.08900
H          4.67900       -3.34000        0.12500
H          5.98600       -2.56600        1.02900
H          6.00000       -2.57800       -0.76100
H          7.20600       -0.71300       -0.11200
H          7.13500        0.96200       -0.01000
H          2.57400        2.12900       -0.01200
H          3.85600        3.34100        1.16000
