20
14442-12-7.pdb
O          3.30100       -1.51300        1.55300
C          3.82700       -2.19800        0.62500
O          4.47400       -3.28500        0.76100
C          3.67000       -1.69700       -0.75300
O          3.02700       -0.55100       -1.11300
N          3.04900       -0.41600       -2.49400
C          3.69100       -1.49800       -2.96300
C          4.13200       -2.31300       -1.89300
C          3.85300       -1.73500       -4.39600
C          3.89100       -0.66400       -5.29900
C          4.03400       -0.89300       -6.66900
C          4.12900       -2.19700       -7.15200
C          4.08500       -3.27200       -6.26600
C          3.95100       -3.04200       -4.89500
H          4.68800       -3.23800       -1.92200
H          3.81500        0.35900       -4.93200
H          4.06500       -0.05100       -7.35500
H          4.23400       -2.37500       -8.21900
H          4.15100       -4.29000       -6.63800
H          3.90400       -3.89600       -4.22200
