22
14446-24-3.pdb
O          1.02100       -0.02900       -0.09300
C          2.38400       -0.06500       -0.09000
C          3.07900       -1.26900       -0.04300
C          4.47600       -1.25500       -0.04700
C          5.17900       -0.04200       -0.10200
C          6.69200       -0.04600       -0.06500
N          7.30100        1.22100       -0.49400
C          6.66500        2.33500        0.22200
C          5.19400        2.48500       -0.17900
C          4.46000        1.16900       -0.12100
C          3.06000        1.14800       -0.13400
H          0.69100       -0.94200       -0.05300
H          2.55700       -2.21900        0.00000
H          5.01700       -2.19800       -0.00300
H          7.07000       -0.83800       -0.72300
H          7.02300       -0.28200        0.95300
H          7.11900        1.33200       -1.49200
H          7.20000        3.26300       -0.00700
H          6.75600        2.18200        1.30500
H          5.12800        2.87000       -1.20500
H          4.71400        3.21200        0.48600
H          2.49300        2.07500       -0.17100
