21
14452-34-7.pdb
C         -3.10900       -0.34600        0.01000
C         -1.64000       -0.03800       -0.00600
C         -0.69000       -1.07000       -0.00900
C          0.69400       -0.80400       -0.02000
C          1.65200       -1.96100       -0.03000
C          1.12400        0.53100       -0.02500
O          2.45300        0.85000        0.01100
C          0.17300        1.55600       -0.03800
C         -1.20200        1.28900       -0.02300
N          0.59000        2.94600       -0.06500
O          1.23700        3.33400       -1.04800
O          0.19900        3.66400        0.86700
H         -3.29100       -1.42600        0.04000
H         -3.58700        0.05000       -0.89100
H         -3.57800        0.09600        0.89400
H         -1.03400       -2.10400        0.00100
H          1.12600       -2.92200       -0.02200
H          2.29500       -1.93100        0.85400
H          2.26800       -1.93100       -0.93500
H          2.99800        0.04700        0.01900
H         -1.92100        2.10500       -0.02500
