19
1445-91-6.pdb
C          2.15800       -0.39900       -1.45700
C          2.62600       -0.05800       -0.04600
O          3.77800        0.77500       -0.17400
C          2.94600       -1.23600        0.85500
C          3.38300       -0.98200        2.16900
C          3.64300       -2.02900        3.05700
C          3.47400       -3.34900        2.64600
C          3.05600       -3.62000        1.34600
C          2.79500       -2.57300        0.45800
H          1.25100       -1.01200       -1.44600
H          2.93700       -0.93000       -2.01500
H          1.94400        0.51800       -2.01900
H          1.84200        0.53800        0.43700
H          4.55000        0.18400       -0.23200
H          3.51200        0.04400        2.50900
H          3.97100       -1.81300        4.06900
H          3.66500       -4.16400        3.33800
H          2.92300       -4.64900        1.02300
H          2.46500       -2.83000       -0.54500
