34
14476-37-0.pdb
C          0.99100       -0.00500       -0.10200
C          2.51100        0.01600       -0.08800
C          3.04300        1.18000        0.74600
C          4.57100        1.19500        0.75600
C          5.11200        2.35700        1.58800
C          6.64000        2.35000        1.59500
C          7.19800        3.51100        2.40900
C          8.71600        3.51900        2.40600
O          9.37800        2.48600        2.29800
C          9.40000        4.86300        2.55600
C          9.04100        5.53300        3.87600
C          9.74600        6.87100        4.02700
H          0.62900       -0.84500       -0.70300
H          0.59100        0.91900       -0.53100
H          0.59200       -0.11500        0.91100
H          2.88000        0.09500       -1.11700
H          2.88100       -0.93300        0.31800
H          2.66900        1.09900        1.77400
H          2.66800        2.12700        0.33900
H          4.94400        1.27500       -0.27200
H          4.94400        0.24700        1.16300
H          4.73800        2.28300        2.61600
H          4.74700        3.30600        1.17800
H          7.01700        2.41200        0.56600
H          7.00000        1.39900        2.00500
H          6.86200        3.45300        3.45000
H          6.84300        4.45700        1.98400
H          9.11500        5.48700        1.70200
H         10.48300        4.70400        2.49500
H          9.31200        4.87800        4.71200
H          7.95900        5.69400        3.94100
H         10.83300        6.74600        4.01200
H          9.47000        7.33800        4.97700
H          9.46500        7.55400        3.21900
