18
1450-93-7.pdb
N          1.03100        0.17300       -0.95300
C          2.32500        0.03600       -1.28800
N          3.15500        1.12000       -1.40100
C          4.44200        0.65000       -1.37400
C          4.32000       -0.71800       -1.37000
N          2.99700       -1.08700       -1.30600
O          1.29600       -0.30400        1.76700
S          2.78700       -0.00900        2.30500
O          3.53300       -1.40000        1.99400
O          3.35200        1.01000        1.46500
O          2.71400        0.17600        3.74400
H          0.57200        1.08100       -1.01900
H          0.41300       -0.58200       -1.25800
H          2.87900        2.08600       -1.29400
H          5.29200        1.31200       -1.28400
H          5.11400       -1.45200       -1.31700
H          1.31000       -0.29300        0.77700
H          3.45600       -1.59700        1.03400
