20
14510-06-6.pdb
O         -1.72000        2.05000        0.01300
C         -1.32200        0.73300        0.00900
C         -2.30000       -0.26700        0.00900
C         -1.91500       -1.60200        0.00300
C         -0.56200       -1.93100       -0.00200
C          0.42000       -0.92400        0.00100
C          1.78400       -1.24800       -0.00100
C          2.73700       -0.23700        0.00200
C          2.28400        1.07000        0.00500
C          3.24000        2.19700        0.00600
O          4.45500        2.03300        0.00700
N          0.97900        1.42300        0.00600
C          0.04900        0.44100        0.00500
H         -2.68800        2.09600        0.00300
H         -3.35700       -0.01900        0.01500
H         -2.66700       -2.38800        0.00200
H         -0.27500       -2.98100       -0.00700
H          2.11100       -2.28500       -0.00300
H          3.79800       -0.46300        0.00300
H          2.78800        3.20300        0.00600
