18
14529-53-4.pdb
C          0.94500        0.36300        1.61500
C          2.43400        0.39800        1.90600
O          3.09200        1.00600        0.79500
C          4.44700        1.16600        1.00600
C          5.24100        1.28700       -0.12400
C          6.60900        1.47300        0.04800
C          7.12700        1.55500        1.33600
C          6.25000        1.44100        2.40300
N          4.92200        1.24300        2.26700
H          0.40700       -0.16800        2.40600
H          0.74300       -0.12700        0.65700
H          0.54700        1.38100        1.54500
H          2.80600       -0.62800        2.03200
H          2.59000        0.96500        2.83100
H          4.80300        1.22800       -1.11300
H          7.26400        1.55700       -0.81500
H          8.18700        1.70700        1.50500
H          6.60400        1.51100        3.42700
