15
1453-82-3.pdb
N          1.08100        0.16800        0.27200
C          2.41200        0.08300       -0.02700
O          2.96400       -1.00100       -0.16000
C          3.14200        1.35700       -0.22900
C          2.76000        2.53400        0.41500
C          3.50300        3.67400        0.16700
N          4.56900        3.70900       -0.66100
C          4.92500        2.55000       -1.25700
C          4.25400        1.35600       -1.07000
H          0.57300       -0.70800        0.29100
H          0.54600        1.01200        0.12400
H          1.93100        2.56800        1.11200
H          3.25900        4.61800        0.64600
H          5.79200        2.61000       -1.90900
H          4.58400        0.45100       -1.56900
