12
14542-13-3.pdb
C          1.34000       -0.28700       -0.51400
O          2.52200       -0.01400        0.22700
C          3.08900       -1.08300        0.78600
S          4.49500       -0.92500        1.75400
C          4.50200       -2.62100        2.00000
C          3.44000       -3.18800        1.33000
N          2.63100       -2.30800        0.64100
H          0.99800        0.65000       -0.96200
H          0.54700       -0.65800        0.14300
H          1.53400       -0.99800       -1.32500
H          5.25800       -3.10500        2.60000
H          3.20800       -4.24600        1.31200
