12
1455-77-2.pdb
N          1.12300       -0.01400        0.08200
C          2.45800       -0.09600        0.09600
N          3.27000        1.00300        0.09900
N          4.56500        0.65200        0.11000
C          4.47000       -0.67400        0.11300
N          5.48800       -1.52000        0.12400
N          3.20200       -1.17100        0.10500
H          0.58800        0.84400        0.10300
H          0.58500       -0.87500        0.10100
H          3.01400        1.98100        0.09300
H          6.43900       -1.18600        0.12100
H          5.32900       -2.51700        0.11700
