21
1455-20-5.pdb
C          1.00700        0.15700        0.00400
C          2.52600        0.08500       -0.03300
C          3.03600       -1.21300        0.59500
C          4.56500       -1.29400        0.56500
C          5.06300       -2.56600        1.19100
S          5.26200       -3.97800        0.24000
C          5.78500       -4.89100        1.58900
C          5.82800       -4.13500        2.73900
C          5.41700       -2.79000        2.50700
H          0.65800        1.08900       -0.45000
H          0.63800        0.12200        1.03400
H          0.56200       -0.67800       -0.54800
H          2.94000        0.94800        0.50100
H          2.86400        0.15400       -1.07400
H          2.60600       -2.06900        0.05900
H          2.68200       -1.28100        1.63200
H          4.98900       -0.44000        1.10800
H          4.92500       -1.21300       -0.46800
H          6.03800       -5.93500        1.47300
H          6.13800       -4.52700        3.69900
H          5.37300       -2.02500        3.27400
