30
1455-21-6.pdb
C          1.04500        0.02100        0.05400
C          2.56400        0.01300        0.04400
C          3.10200       -1.21600       -0.68500
C          4.62800       -1.22800       -0.69700
C          5.15900       -2.45900       -1.42800
C          6.68600       -2.47400       -1.43900
C          7.21800       -3.70500       -2.17000
C          8.74700       -3.71900       -2.18000
C          9.27100       -4.95100       -2.91200
S         11.08600       -4.96300       -2.92100
H          0.67200        0.90700        0.57900
H          0.65200       -0.86500        0.56300
H          0.64700        0.03700       -0.96500
H          2.93300        0.02800        1.07600
H          2.92700        0.92500       -0.44500
H          2.72600       -1.22600       -1.71500
H          2.73000       -2.12500       -0.19700
H          5.00500       -1.22000        0.33300
H          5.00100       -0.32000       -1.18500
H          4.78300       -2.46700       -2.45900
H          4.78500       -3.36800       -0.94100
H          7.06100       -2.46600       -0.40800
H          7.06000       -1.56500       -1.92600
H          6.84200       -3.71300       -3.20000
H          6.84400       -4.61300       -1.68100
H          9.11400       -3.70800       -1.14600
H          9.11200       -2.80600       -2.66700
H          8.91700       -4.96300       -3.94700
H          8.92100       -5.86600       -2.42300
H         11.24400       -3.80700       -3.58300
