24
1459-93-4.pdb
C          1.13900       -0.49400       -0.51200
O          2.56400       -0.53600       -0.54200
C          3.12200        0.43900       -1.30300
O          2.51300        1.29400       -1.92500
C          4.60200        0.31900       -1.30900
C          5.27700       -0.67300       -0.58700
C          6.66600       -0.77600       -0.66500
C          7.38800        0.10600       -1.47300
C          6.72400        1.10100       -2.20400
C          5.33100        1.21500       -2.10500
C          7.43500        2.02700       -3.12700
O          6.87800        2.90900       -3.75800
O          8.75500        1.72100       -3.18700
C          9.49200        2.52300       -4.11100
H          0.79400       -1.21000        0.23800
H          0.73600       -0.78600       -1.48700
H          0.78400        0.50100       -0.22800
H          4.73100       -1.38300        0.03100
H          7.18500       -1.55500       -0.11100
H          8.46800       -0.00500       -1.53600
H          4.80800        1.98700       -2.66800
H         10.54400        2.22900       -4.05000
H          9.41400        3.58300       -3.85200
H          9.14200        2.34600       -5.13300
