18
14603-76-0.pdb
C          0.96900        0.05600       -0.05800
C          2.49300        0.02500        0.01500
N          2.98300        1.46400        0.10600
C          3.02100       -0.71800        1.24600
C          2.58600       -0.08100        2.56300
O          2.44300        1.18500        2.49600
O          2.46500       -0.85100        3.54200
C          3.11600       -0.63700       -1.27000
O          2.46600       -1.54500       -1.84400
O          4.18300       -0.03400       -1.62000
H          0.52400        0.56900        0.80100
H          0.55300       -0.95800       -0.08400
H          0.62800        0.57500       -0.96100
H          2.80100        1.79500        1.08100
H          2.57200        2.04400       -0.61700
H          3.99100        1.39200       -0.09200
H          4.11900       -0.72500        1.24800
H          2.69800       -1.76700        1.22300
