27
1462-12-0.pdb
C          1.92600       -1.04300        1.15000
C          2.47600       -0.10900        0.08100
O          3.15300       -0.87800       -0.92100
C          4.39400       -1.29400       -0.57100
O          5.04300       -0.82400        0.35400
C          4.83600       -2.46300       -1.37200
C          4.02600       -3.39600       -1.92700
C          2.53500       -3.52600       -1.93400
C          6.29200       -2.78600       -1.41600
O          6.73300       -3.91900       -1.53800
O          7.04000       -1.66800       -1.25500
C          8.38600       -1.89400       -0.81700
C          8.39100       -2.02800        0.69800
H          1.38600       -0.48600        1.91900
H          2.73200       -1.61000        1.62900
H          1.25000       -1.77800        0.70200
H          3.13200        0.65900        0.51100
H          1.65000        0.41300       -0.41100
H          4.50200       -4.24500       -2.42400
H          1.99200       -2.72600       -1.43600
H          2.25400       -4.45700       -1.43200
H          2.17600       -3.57600       -2.96600
H          8.97800       -1.02500       -1.11400
H          8.83100       -2.77200       -1.30000
H          7.97700       -1.12600        1.16000
H          9.40300       -2.18900        1.07800
H          7.75800       -2.86300        1.01900
