18
14631-20-0.pdb
C          1.11000        0.96900        1.46000
C          2.57500        1.22000        1.69500
O          2.99700        1.65000        2.76500
N          3.37000        0.89200        0.61000
C          4.74100        0.98800        0.57400
C          5.43100        0.63400       -0.51300
C          6.89000        0.78900       -0.38500
N          7.52100        1.22000        0.65300
C          6.77700        1.57300        1.75100
O          7.28500        1.99000        2.78700
N          5.41600        1.44400        1.66400
H          0.53000        1.43800        2.26000
H          0.91900       -0.10700        1.46500
H          0.79600        1.40000        0.50600
H          2.90300        0.54700       -0.22100
H          5.01600        0.25800       -1.43400
H          7.47200        0.50000       -1.27600
H          4.88600        1.71000        2.49100
