43
146549-21-5.pdb
O          4.56100        2.30900       -2.57600
C          5.24100        2.11900       -1.53000
O          5.85800        2.95900       -0.80400
C          5.34300        0.64200       -1.04300
C          3.92400        0.08900       -0.81400
C          3.21700        0.71900        0.36700
C          2.80400        0.05100        1.45200
N          6.16200        0.44900        0.16400
C          6.53500       -0.76700        0.61800
O          6.48700       -1.81700       -0.00900
O          6.98400       -0.66100        1.89400
C          7.77800       -1.76100        2.36400
C          9.23900       -1.50500        1.97900
C          9.79800       -0.23700        2.63100
C          9.32600        1.06500        2.53100
C          9.98400        2.06800        3.23900
C         11.11500        1.76900        4.01200
C         11.59800        0.45700        4.09500
C         10.93300       -0.54500        3.40500
C         11.18700       -1.96800        3.31900
C         12.19000       -2.73400        3.88700
C         12.20100       -4.10900        3.63400
C         11.21900       -4.70000        2.82100
C         10.20900       -3.92700        2.24400
C         10.20100       -2.56500        2.50200
H          5.82400        0.06900       -1.84700
H          3.30500        0.22700       -1.70500
H          3.99100       -0.99500       -0.65500
H          3.06600        1.79700        0.31200
H          2.95900       -1.01800        1.54900
H          2.32100        0.57500        2.26900
H          6.32600        1.29300        0.69900
H          7.41600       -2.71600        1.96700
H          7.65300       -1.81200        3.45200
H          9.35800       -1.40900        0.89300
H          8.46100        1.31400        1.92500
H          9.61300        3.08900        3.18100
H         11.61500        2.56600        4.55100
H         12.47600        0.23800        4.69300
H         12.95400       -2.28400        4.51100
H         12.98300       -4.72800        4.06800
H         11.25100       -5.77100        2.63500
H          9.45900       -4.38400        1.60500
