20
1466-88-2.pdb
O          0.99100       -0.04300        0.20400
N          2.21800       -0.15200        0.07500
O          2.82300       -0.26300       -1.00000
C          3.00900       -0.20000        1.29200
C          2.68600       -1.18700        2.23500
C          3.46000       -1.30600        3.38700
C          4.54100       -0.44700        3.59000
C          4.84100        0.54900        2.65300
C          4.07500        0.69200        1.48700
C          4.42300        1.78500        0.57200
C          3.91900        3.01400        0.73700
C          4.32300        4.10700       -0.16900
O          3.89400        5.24500       -0.02000
H          1.84800       -1.86300        2.07600
H          3.22900       -2.07100        4.12500
H          5.15300       -0.54800        4.48500
H          5.68400        1.21200        2.84400
H          5.11900        1.53800       -0.22600
H          3.22200        3.28200        1.52300
H          5.03700        3.84800       -0.96700
