19
14667-55-1.pdb
C          1.10300       -0.01300       -0.08500
C          2.59800       -0.00300       -0.08500
C          3.33000       -1.18100       -0.08000
N          4.68100       -1.20400       -0.07700
C          5.30200        0.00400       -0.07800
C          6.80000       -0.02400       -0.07200
C          4.57500        1.20000       -0.08400
C          5.22300        2.55200       -0.08600
N          3.21500        1.20400       -0.08700
H          0.70400       -1.03200       -0.08700
H          0.72600        0.50100       -0.97500
H          0.72600        0.49800        0.80700
H          2.84800       -2.15100       -0.07900
H          7.17200       -1.05300       -0.06900
H          7.18500        0.47400        0.82300
H          7.19300        0.47200       -0.96500
H          6.31500        2.50700       -0.08500
H          4.91400        3.11100        0.80300
H          4.91600        3.10700       -0.97800
