28
1468-95-7.pdb
O          3.41300        0.06600        0.91600
C          2.30200        0.00800        0.03400
C          2.77400        0.24600       -1.38600
C          3.19900       -0.86200       -2.19200
C          3.18300       -2.21500       -1.76700
C          3.60100       -3.26400       -2.59000
C          4.05800       -2.99400       -3.87000
C          4.08900       -1.67600       -4.32200
C          3.66700       -0.61300       -3.50300
C          3.70900        0.70000       -3.99000
C          3.29700        1.79300       -3.21700
C          3.35400        3.09300       -3.75300
C          2.95000        4.20000       -3.01100
C          2.48700        4.02100       -1.72000
C          2.43000        2.73600       -1.17300
C          2.82600        1.58400       -1.90000
H          3.07200       -0.07400        1.81400
H          1.55500        0.73900        0.35000
H          1.80300       -0.95800        0.14700
H          2.84400       -2.48500       -0.77100
H          3.57000       -4.28600       -2.22400
H          4.39200       -3.80200       -4.51400
H          4.45100       -1.48400       -5.33000
H          4.07300        0.87700       -5.00100
H          3.71700        3.25300       -4.76700
H          3.00100        5.19700       -3.44100
H          2.16900        4.87400       -1.12600
H          2.07200        2.65900       -0.15200
