36
14691-89-5.pdb
C          1.09000        0.37600       -0.08500
C          2.57500        0.23500        0.13700
O          3.14100        0.67800        1.13100
N          3.18100       -0.43700       -0.88900
C          4.59600       -0.79700       -0.96600
C          5.04600       -0.86900       -2.42400
C          4.69300       -2.18700       -3.16800
C          3.20800       -2.24400       -3.61800
C          5.43700       -2.14000       -4.55100
N          5.01100       -3.40700       -2.36400
O          6.40500       -3.58100       -2.42200
C          4.62300       -3.39900       -0.91000
C          3.11200       -3.70900       -0.73900
C          5.29500       -4.57800       -0.11900
C          4.97000       -2.06600       -0.19200
H          0.69900        1.19600        0.52400
H          0.59100       -0.55700        0.18900
H          0.88200        0.60300       -1.13400
H          2.58200       -0.86500       -1.57400
H          5.12800        0.03800       -0.48900
H          6.13800       -0.74200       -2.43100
H          4.64600       -0.00800       -2.97800
H          2.94400       -1.35600       -4.20600
H          2.47900       -2.30400       -2.82000
H          3.02900       -3.12100       -4.25200
H          5.07900       -1.29500       -5.15500
H          5.25700       -3.05400       -5.13000
H          6.51900       -2.00600       -4.45000
H          2.80600       -4.55000       -1.37300
H          2.45500       -2.87000       -0.94600
H          2.88100       -3.99000        0.29700
H          5.07500       -5.54200       -0.59500
H          4.92200       -4.62900        0.91100
H          6.38300       -4.47600       -0.04100
H          6.05700       -2.03500       -0.02500
H          4.51800       -2.04600        0.80800
