30
14698-29-4.pdb
C          1.15500       -0.45200        0.37000
C          2.49800        0.09800       -0.09600
N          3.04600        1.04800        0.89400
C          2.73500        2.40000        0.80900
C          2.90600        3.32300        1.76200
C          2.51700        4.72500        1.49300
O          2.74200        5.57700        2.51500
O          2.03200        5.09500        0.43100
C          3.44600        2.85900        3.05500
O          3.62600        3.66200        3.96900
C          3.76100        1.41900        3.21000
C          4.20800        0.96400        4.46100
C          4.53300       -0.36600        4.57000
O          4.96500       -0.99300        5.69500
C          5.18300       -2.33000        5.19700
O          4.85100       -2.47900        3.80000
C          4.45300       -1.21400        3.49400
C          4.00200       -0.79400        2.25800
C          3.59900        0.54400        2.09700
H          0.75500       -1.15900       -0.36200
H          0.42500        0.35500        0.49900
H          1.23900       -0.97400        1.33000
H          2.34800        0.60800       -1.05600
H          3.20000       -0.71300       -0.31700
H          2.30900        2.68300       -0.15400
H          3.12900        5.14700        3.31700
H          4.29200        1.62800        5.31500
H          6.24000       -2.58400        5.33700
H          4.57100       -3.03000        5.77800
H          3.97500       -1.51700        1.45300
