19
1477-42-5.pdb
C          1.07700       -0.06900        0.06400
C          2.57600        0.02400        0.06400
C          3.19800        1.28800        0.07300
C          4.58400        1.41400        0.07300
C          5.40300        0.28600        0.06400
C          4.78900       -0.97500        0.04900
S          5.52800       -2.52800        0.02300
C          3.98300       -3.26600       -0.02100
N          3.85600       -4.60100       -0.09100
N          2.96200       -2.45000        0.02300
C          3.40300       -1.13000        0.04800
H          0.60900        0.92100        0.06800
H          0.73700       -0.60800        0.95200
H          0.73700       -0.60300       -0.83000
H          2.58800        2.19100        0.07900
H          5.03400        2.40600        0.07700
H          6.48400        0.38400        0.06200
H          4.64500       -5.18000        0.16200
H          2.94600       -4.98100        0.13900
