48
147923-08-8.pdb
C          1.34000       -3.62400        2.43300
C          1.83500       -2.70700        1.31000
C          2.38400       -3.51100        0.12400
C          0.64800       -1.86500        0.81200
O          2.80800       -1.74300        1.80100
C          3.98500       -2.15200        2.31800
O          4.37000       -3.30300        2.47000
N          4.74200       -1.08000        2.68100
C          6.14700       -1.22400        3.07700
C          6.92900        0.08400        2.85900
C          8.43800        0.00400        2.98400
C          9.16500       -1.14900        2.67700
C         10.56400       -1.15800        2.74900
C         11.29700       -0.00900        3.09100
C         10.55500        1.14000        3.41000
C          9.15400        1.14700        3.36100
C         12.78000       -0.01500        3.08300
C         13.50300       -0.80900        2.16900
C         14.90000       -0.82000        2.15200
C         15.61500       -0.02300        3.03900
C         14.93100        0.77900        3.94600
C         13.53200        0.77900        3.97100
C          6.27300       -1.72200        4.53100
O          5.76400       -2.96600        4.71700
O          6.79700       -1.10200        5.44400
H          0.53000       -4.27400        2.08600
H          0.97200       -3.03600        3.28200
H          2.13600       -4.26900        2.81800
H          1.63800       -4.22100       -0.25100
H          3.27800       -4.08200        0.38900
H          2.66900       -2.84700       -0.70000
H         -0.14500       -2.49200        0.39000
H          0.96900       -1.15200        0.04300
H          0.22200       -1.26900        1.62600
H          4.32100       -0.16600        2.57600
H          6.56700       -2.00600        2.43400
H          6.54800        0.84600        3.55200
H          6.71800        0.45700        1.84700
H          8.68200       -2.07300        2.37600
H         11.07500       -2.09100        2.52900
H         11.06000        2.06400        3.68500
H          8.62800        2.06600        3.61800
H         12.98100       -1.42500        1.43900
H         15.42700       -1.44900        1.43900
H         16.70200       -0.02600        3.02100
H         15.48300        1.40800        4.64100
H         13.03300        1.40300        4.70900
H          5.34900       -3.34700        3.90600
