21
1481-93-2.pdb
O          0.92700        0.03700       -0.00500
C          2.35100       -0.01200        0.04200
C          2.82200       -1.45800        0.09300
C          2.57800       -1.99600        1.49300
O          3.36600       -1.30400        2.46600
C          3.28800        0.06200        2.38300
C          3.75600        0.77000        3.49000
C          3.72800        2.16400        3.49400
C          3.23300        2.85200        2.38800
C          2.77500        2.14600        1.27500
C          2.81200        0.74300        1.25600
H          0.64700       -0.41400       -0.81800
H          2.73500        0.46600       -0.86700
H          3.89700       -1.49900       -0.12500
H          2.29400       -2.07100       -0.64500
H          2.87100       -3.05100        1.53500
H          1.51900       -1.94500        1.77800
H          4.13600        0.23200        4.35300
H          4.08700        2.71200        4.36100
H          3.20300        3.93800        2.39200
H          2.38700        2.69100        0.41700
