21
1485-00-3.pdb
O          1.58200       -1.21300        1.71500
N          2.66000       -1.03200        1.13500
O          3.14400       -1.80400        0.29900
C          3.36100        0.17700        1.50900
C          4.52100        0.58500        0.97600
C          5.31600       -0.06000       -0.07000
C          6.30700       -1.00100        0.28300
C          7.00600       -1.70200       -0.70500
C          6.68600       -1.44400       -2.01900
O          7.21900       -2.06500       -3.10500
C          6.41300       -1.49800       -4.15900
O          5.56800       -0.41700       -3.71200
C          5.73900       -0.50700       -2.36500
C          5.04600        0.21400       -1.41700
H          2.81500        0.70400        2.27800
H          4.95300        1.51600        1.34100
H          6.51400       -1.21600        1.32900
H          7.75000       -2.44600       -0.44600
H          5.77700       -2.28700       -4.57800
H          7.07600       -1.12500       -4.94700
H          4.29100        0.93000       -1.71900
