15
149-30-4.pdb
S         -3.11600       -0.47700        0.00600
C         -1.48400       -0.19000        0.00700
N         -0.53100       -1.18600       -0.00100
C          0.79300       -0.74500       -0.00300
C          1.90700       -1.56500       -0.01500
C          3.16500       -0.95600       -0.01400
C          3.28500        0.44400        0.00400
C          2.14700        1.25700        0.01600
C          0.90700        0.64500        0.01000
S         -0.69900        1.39500        0.01700
H         -0.79100       -2.16200       -0.00500
H          1.81900       -2.64600       -0.02800
H          4.06300       -1.57000       -0.02700
H          4.27300        0.90000        0.00800
H          2.23800        2.33800        0.03000
