23
14916-80-4.pdb
C          0.92300       -0.07100       -0.00100
C          2.44100       -0.07800       -0.01100
C          2.96900       -1.10700       -1.00400
C          4.49000       -1.11300       -1.01000
C          4.99600       -2.14500       -2.00400
C          5.43100       -3.03100       -2.85700
C          5.93800       -4.06300       -3.85100
C          5.06800       -4.05100       -5.10600
O          5.09200       -2.77300       -5.74300
H          0.55100        0.66900        0.71400
H          0.53200       -1.05200        0.28600
H          0.53000        0.18000       -0.99100
H          2.81100       -0.30600        0.99500
H          2.80900        0.92000       -0.27500
H          2.59400       -0.88200       -2.01100
H          2.59400       -2.10500       -0.74400
H          4.88100       -1.35800       -0.01600
H          4.88100       -0.12900       -1.29200
H          5.92000       -5.05500       -3.38700
H          6.97600       -3.82800       -4.10800
H          4.02700       -4.30000       -4.86900
H          5.43400       -4.79000       -5.82600
H          4.74600       -2.12900       -5.09000
