14
14918-21-9.pdb
C          0.92900       -0.07100       -0.00100
C          2.23300       -0.07100       -0.00100
C          3.75300       -0.07100       -0.00100
C          4.26300        0.49400       -1.31200
C          5.78000        0.49600       -1.31700
C          6.28600        1.06300       -2.63300
N          6.70700        1.53300       -3.72500
H         -0.13700       -0.06900       -0.00500
H          4.10500       -1.09800        0.14500
H          4.10500        0.52900        0.84600
H          3.88400        1.51400       -1.45800
H          3.88400       -0.10000       -2.15300
H          6.17200       -0.52000       -1.19700
H          6.17200        1.10800       -0.49600
