20
14916-79-1.pdb
C          1.03100       -0.04600       -0.08900
C          2.55000       -0.03200       -0.07400
C          3.08000        0.96200        0.95300
C          4.60000        0.96200        0.95300
C          5.90400        0.96200        0.95300
C          7.42400        0.96200        0.95300
C          7.95200        2.24000        1.60000
O          7.51200        2.35500        2.95200
H          0.66400       -0.76300       -0.83000
H          0.63300        0.94200       -0.34400
H          0.63300       -0.33400        0.89000
H          2.92000        0.22600       -1.07400
H          2.92100       -1.04000        0.15000
H          2.72800        0.70200        1.95700
H          2.72800        1.97400        0.72600
H          7.78800        0.88200       -0.07700
H          7.77900        0.08400        1.50400
H          7.62200        3.12900        1.05100
H          9.04700        2.23700        1.60500
H          6.53400        2.39600        2.92600
