16
1492-24-6.pdb
C          1.01800       -0.06000       -0.10500
C          2.54000       -0.06700       -0.04900
C          3.11000        0.68600        1.15700
N          2.73900        0.05800        2.45900
C          4.64700        0.76500        1.09100
O          5.18800        0.74400        2.33800
O          5.31300        0.86900        0.07200
H          0.67500       -0.52000       -1.03700
H          0.62900        0.96300       -0.07200
H          0.58100       -0.62400        0.72300
H          2.91600        0.39600       -0.97000
H          2.90100       -1.10300       -0.05900
H          2.74600        1.72200        1.16700
H          2.92400       -0.94800        2.39000
H          1.72200        0.11700        2.56100
H          4.42700        0.62700        2.96000
