32
14947-53-6.pdb
C         -0.05800       -1.91200       -0.38600
C          1.23800       -1.35400        0.19100
S          1.51200        0.40400       -0.18000
C          0.00700        1.13000        0.55300
C          0.00300        0.99200        2.08600
C         -1.23100        1.61500        2.76100
C         -1.22000        1.47800        4.29300
S          0.19700        2.25900        5.12700
C         -0.11200        3.99400        4.70200
C         -1.44400        4.51100        5.23000
C         -2.67600        3.83100        4.64700
S         -2.78300        2.06000        5.03100
S         -1.47100        0.48400       -0.29300
C         -1.33100       -1.26900        0.14800
H         -0.09900       -2.98100       -0.14300
H         -0.03800       -1.85300       -1.48200
H          2.08000       -1.90600       -0.24000
H          1.28700       -1.51400        1.27200
H          0.04300        2.19700        0.31400
H          0.90700        1.48600        2.46500
H          0.07100       -0.05400        2.39800
H         -2.13100        1.11000        2.38900
H         -1.31000        2.66000        2.44500
H         -1.15900        0.41100        4.53400
H         -0.03600        4.12800        3.61900
H          0.69800        4.58300        5.14500
H         -1.50800        5.57900        4.98800
H         -1.46500        4.44900        6.32600
H         -2.73100        3.97700        3.56400
H         -3.57000        4.30300        5.06600
H         -2.19900       -1.77800       -0.28400
H         -1.41100       -1.38300        1.23300
