25
1497-17-2.pdb
C          0.95800        0.12300        0.10700
C          2.48600        0.06400       -0.01900
C          3.06100       -1.22500        0.60700
C          4.27600       -0.74900        1.35100
O          5.10700       -1.46700        1.88500
N          4.23700        0.60000        1.44100
C          3.10900        1.11900        0.89200
O          2.70400        2.25400        1.08700
C          2.91900        0.20800       -1.48700
C          3.71400        1.27700       -1.93300
C          4.12300        1.36700       -3.26600
C          3.73300        0.39800       -4.18400
C          2.92900       -0.65900       -3.77100
C          2.52500       -0.75400       -2.43700
H          0.64600        0.11300        1.15800
H          0.47600       -0.72800       -0.38600
H          0.55700        1.03900       -0.34000
H          3.34400       -1.99300       -0.11700
H          2.37600       -1.65800        1.34600
H          4.85600        1.12400        2.03900
H          4.03700        2.07000       -1.26100
H          4.74500        2.19900       -3.58500
H          4.05300        0.47100       -5.22000
H          2.61700       -1.41400       -4.48900
H          1.89900       -1.59600       -2.14900
