28
1498-96-0.pdb
C          0.88400        0.48600       -1.11600
C          2.38000        0.53100       -1.37900
C          3.04500        1.69100       -0.64400
C          4.54600        1.72900       -0.90600
O          5.09800        2.83800       -0.19100
C          6.44600        3.03600       -0.33500
C          7.30100        2.23700       -1.08200
C          8.66200        2.55400       -1.18100
C          9.18700        3.67600       -0.52500
C          8.32500        4.49100        0.21500
C          6.96000        4.16200        0.31700
C         10.64900        3.94000       -0.70600
O         11.26800        4.54700        0.32600
O         11.25100        3.57700       -1.69800
H          0.43100       -0.35700       -1.64700
H          0.39700        1.40500       -1.46000
H          0.67700        0.36600       -0.04800
H          2.55200        0.62600       -2.45800
H          2.83000       -0.41700       -1.06200
H          2.86400        1.61600        0.43500
H          2.60100        2.64400       -0.95900
H          4.71200        1.84600       -1.98400
H          5.00900        0.79900       -0.55800
H          6.94300        1.36600       -1.62700
H          9.30600        1.91800       -1.78700
H          8.66100        5.40400        0.69900
H          6.29300        4.80000        0.88900
H         10.72800        4.74300        1.11500
