28
1499-53-2.pdb
C          2.53600       -1.52800       -2.01900
C          2.63900       -0.55700       -0.85500
O          3.19100        0.66800       -1.35600
C          4.55100        0.73500       -1.36300
O          5.30900       -0.01900       -0.76200
C          5.00400        1.83700       -2.30200
N          6.45000        1.83200       -2.42200
C          7.08000        2.68000       -3.29900
O          6.47300        3.48400       -3.99700
C          8.56500        2.60100       -3.35300
C          9.26200        1.42400       -3.05300
C         10.65600        1.40100       -3.14000
C         11.35400        2.54500       -3.52800
C         10.66200        3.71500       -3.83600
C          9.26900        3.74300       -3.75400
H          2.10000       -2.48000       -1.70200
H          3.52200       -1.71800       -2.45400
H          1.91800       -1.10100       -2.81400
H          3.23400       -0.97200       -0.03300
H          1.64300       -0.33500       -0.46000
H          4.68100        2.81200       -1.92800
H          4.58300        1.65100       -3.29500
H          6.97200        1.27500       -1.75500
H          8.74100        0.51100       -2.78100
H         11.20000        0.48500       -2.91600
H         12.43800        2.52200       -3.60100
H         11.20400        4.60500       -4.14700
H          8.73300        4.65600       -4.00300
