44
1499-10-1.pdb
C          1.03600       -0.25400        0.03700
C          0.15100       -1.19000        0.54900
C         -1.22200       -0.89200        0.60600
C         -1.74500        0.35000        0.19700
C         -0.80000        1.28700       -0.28800
C          0.55900        0.98600       -0.39700
C         -3.21300        0.66700        0.24400
C         -4.09300        0.08300        1.18900
C         -3.76700       -0.45400        2.46800
C         -4.65100       -1.29300        3.15000
C         -5.76000       -1.77100        2.47200
C         -6.19900       -1.07300        1.36100
C         -5.46200        0.03000        0.87800
C         -5.99100        1.09100        0.12500
C         -7.45200        1.27400       -0.12700
C         -8.42000        1.14700        0.87600
C         -9.77000        1.39000        0.60700
C        -10.16700        1.84500       -0.66500
C         -9.23200        1.98900       -1.65500
C         -7.90000        1.66400       -1.40800
C         -5.04600        2.00400       -0.42200
C         -5.38000        3.25700       -0.94900
C         -5.10200        3.51100       -2.27400
C         -4.16100        2.70700       -2.87300
C         -3.40700        1.82200       -2.08000
C         -3.81800        1.48800       -0.75600
H          2.09700       -0.48200       -0.02000
H          0.51400       -2.14700        0.91100
H         -1.88200       -1.67100        0.99000
H         -1.12600        2.26700       -0.63700
H          1.24800        1.70800       -0.82200
H         -2.82100       -0.18600        2.94600
H         -4.46000       -1.60100        4.17200
H         -6.32300       -2.61800        2.84800
H         -7.14600       -1.34100        0.90200
H         -8.12800        0.84100        1.88600
H        -10.50600        1.25600        1.39500
H        -11.21300        2.09300       -0.83300
H         -9.51800        2.37100       -2.63400
H         -7.20100        1.72600       -2.23900
H         -5.44800        4.10500       -0.26300
H         -5.61500        4.31500       -2.78600
H         -3.95600        2.81600       -3.93500
H         -2.56000        1.30600       -2.52000
