22
1499-55-4.pdb
C          1.06100        0.01600       -0.04900
O          2.48900        0.03600       -0.09200
C          2.99300        0.48400       -1.27700
O          2.32200        0.84300       -2.23300
C          4.50600        0.45100       -1.23300
C          5.10100        0.96900       -2.54600
C          6.63100        1.00500       -2.55900
N          7.24300       -0.35000       -2.45800
C          7.15400        1.66500       -3.85300
O          8.32300        1.09200       -4.24900
O          6.63100        2.59500       -4.44400
H          0.75500       -0.36800        0.92800
H          0.66400       -0.64900       -0.82200
H          0.66000        1.02800       -0.16500
H          4.81200       -0.58300       -1.05600
H          4.84200        1.08000       -0.40100
H          4.72100        1.98400       -2.72600
H          4.73400        0.36400       -3.38600
H          7.00800        1.61100       -1.72800
H          6.76600       -0.96900       -3.12400
H          7.02400       -0.74300       -1.54000
H          8.49700        0.35800       -3.60900
