36
150-84-5.pdb
C          0.90900        0.07500        0.02800
C          2.43900        0.11900       -0.02400
C          2.95600       -0.25300       -1.43000
C          2.54000        0.69400       -2.55600
O          3.04500        0.21400       -3.81600
C          4.30300        0.61800       -4.14100
C          4.69600        0.09700       -5.48900
O          5.03000        1.30900       -3.44100
C          3.00200        1.47600        0.45200
C          2.67200        1.78100        1.91900
C          3.15800        3.13800        2.34600
C          2.48200        4.29700        2.23600
C          1.13300        4.44400        1.58200
C          3.05300        5.58300        2.77400
H          0.53900       -0.89300       -0.33300
H          0.45800        0.86300       -0.58300
H          0.53600        0.19200        1.04900
H          2.81100       -0.65300        0.66200
H          2.61400       -1.26600       -1.68300
H          4.05100       -0.32400       -1.40300
H          2.86600        1.72400       -2.37900
H          1.45000        0.71600       -2.65700
H          3.85900       -0.41900       -5.96700
H          5.52300       -0.60800       -5.37700
H          4.99000        0.93500       -6.12600
H          2.61700        2.28200       -0.18300
H          4.09300        1.47300        0.32900
H          3.13600        1.02500        2.56400
H          1.59800        1.71000        2.11000
H          4.14200        3.14300        2.81300
H          0.74600        3.50700        1.17000
H          1.19700        5.15500        0.75200
H          0.40000        4.81600        2.30300
H          4.02400        5.43400        3.25800
H          2.37400        6.01300        3.51900
H          3.18800        6.30700        1.96600
