17
150-76-5.pdb
C          1.07000        0.07300        0.01100
O          2.49200        0.04900       -0.00500
C          3.12900        1.25900       -0.01600
C          2.50900        2.51200       -0.01000
C          3.27900        3.68000       -0.03100
C          4.66700        3.58900       -0.05600
O          5.45200        4.70300       -0.08300
C          5.29600        2.35100       -0.05600
C          4.52500        1.18800       -0.03600
H          0.71700       -0.96300       -0.00100
H          0.67200        0.57000       -0.87900
H          0.69700        0.54200        0.92800
H          1.42900        2.61400        0.01000
H          2.77900        4.64300       -0.02700
H          4.87900        5.48600       -0.09500
H          6.38000        2.29000       -0.07400
H          5.01600        0.21800       -0.03900
