23
150-30-1.pdb
N          0.91800        0.20400        0.02100
C          2.42000        0.20800       -0.03100
C          2.98000        0.56700       -1.41800
C          2.57200       -0.40300       -2.50300
C          1.40500       -0.19100       -3.24800
C          1.02100       -1.09800       -4.23600
C          1.80800       -2.21800       -4.49900
C          2.97600       -2.43300       -3.77000
C          3.35600       -1.53400       -2.77200
C          2.92900        1.23400        0.99400
O          1.91000        1.71900        1.75400
O          4.08900        1.58200        1.13000
H          0.61700       -0.67600       -0.41700
H          0.57800        0.91600       -0.63500
H          2.76500       -0.77700        0.29900
H          4.07500        0.60800       -1.37600
H          2.67000        1.58100       -1.70300
H          0.78500        0.68400       -3.07100
H          0.11200       -0.92700       -4.80800
H          1.51400       -2.91700       -5.27600
H          3.59500       -3.30000       -3.98400
H          4.27400       -1.71700       -2.21700
H          1.09900        1.23800        1.44200
