29
15001-27-1.pdb
C          1.05300       -0.53000        0.01200
O          2.40800       -0.10400       -0.06300
C          3.07000        0.06800        1.12300
C          2.71300       -0.61100        2.29400
C          3.45800       -0.46200        3.47000
C          4.57600        0.37500        3.50600
C          5.40400        0.54400        4.71300
C          4.91800        0.47800        5.96100
C          5.68300        0.65100        7.22700
C          7.14800        1.00300        7.22700
O          5.07400        0.50900        8.29000
C          4.95200        1.02600        2.32600
C          4.20300        0.89700        1.14400
O          4.73200        1.60400        0.09300
C          3.80700        2.11100       -0.86100
H          0.63200       -0.48200       -0.99700
H          0.46500        0.13600        0.65300
H          0.97900       -1.56900        0.34600
H          1.87200       -1.29700        2.32100
H          3.15500       -1.03100        4.34700
H          6.45000        0.75400        4.51600
H          3.86300        0.28800        6.14500
H          7.58500        1.05100        6.23000
H          7.69100        0.24400        7.79600
H          7.27500        1.98000        7.70100
H          5.83100        1.66700        2.31100
H          4.30200        2.92800       -1.39500
H          2.90900        2.52300       -0.38800
H          3.55700        1.34800       -1.60500
