16
1500-85-2.pdb
N          1.89900       -1.91800        0.16100
C          1.22100       -0.70900        0.09300
N          1.96200        0.41700        0.06100
C          1.32000        1.60300        0.00500
N         -0.00500        1.83200       -0.03300
C         -0.69400        0.68200       -0.01000
N         -2.05900        0.59100       -0.03400
C         -2.43500       -0.72900       -0.00800
C         -1.28600       -1.49200        0.04200
C         -0.17500       -0.60200        0.04600
H          2.86900       -1.80200       -0.10600
H          1.40900       -2.70800       -0.23400
H          1.95500        2.48300       -0.01400
H         -2.67500        1.39000       -0.06300
H         -3.48000       -1.00800       -0.02400
H         -1.24800       -2.57200        0.07900
