20
1501-27-5.pdb
C          1.16900        0.34300       -1.31700
O          2.59800        0.31100       -1.26100
C          3.10900       -0.91900       -0.98900
O          2.45000       -1.93300       -0.78800
C          4.61800       -0.89100       -0.98400
C          5.16100       -1.85500       -2.03800
C          6.68500       -1.89100       -2.05100
C          7.24700       -2.78400       -3.13300
O          6.92600       -4.08800       -3.00700
O          7.97200       -2.37700       -4.02900
H          0.85900        1.36700       -1.54500
H          0.74100        0.05800       -0.35100
H          0.80300       -0.31400       -2.11200
H          4.95200       -1.16800        0.02300
H          4.97300        0.12800       -1.17300
H          4.78700       -1.56300       -3.02800
H          4.76500       -2.86100       -1.85100
H          7.09000       -2.21400       -1.08700
H          7.06900       -0.88000       -2.23800
H          6.36900       -4.30800       -2.23900
