26
1501-05-9.pdb
O          2.47200        1.20300        0.55500
C          2.31200        0.04500       -0.11700
O          1.58000       -0.05500       -1.08900
C          3.08300       -1.11300        0.46600
C          4.58900       -0.88500        0.39900
C          5.36700       -2.09000        0.93000
C          6.86200       -1.81500        0.92000
O          7.29800       -0.67300        1.06300
C          7.82200       -2.95000        0.76800
C          7.41800       -4.29000        0.75400
C          8.36300       -5.30600        0.58200
C          9.71400       -4.99300        0.43700
C         10.12600       -3.66300        0.46800
C          9.18400       -2.64500        0.63200
H          3.07900        1.14900        1.31600
H          2.81700       -2.01200       -0.10300
H          2.74400       -1.27400        1.49500
H          4.85700        0.01200        0.96800
H          4.88700       -0.68600       -0.63900
H          5.12500       -2.95200        0.30400
H          5.07500       -2.30800        1.96400
H          6.38000       -4.58100        0.87700
H          8.04500       -6.34600        0.56100
H         10.44600       -5.78500        0.30200
H         11.17900       -3.41400        0.36200
H          9.52100       -1.61000        0.65100
