21
15029-32-0.pdb
O          1.27400       -0.90400       -0.08300
C          2.31700       -0.26000        0.05700
C          2.86300        0.52800       -1.10500
C          2.32200        1.94800       -1.10700
N          1.87300        3.12700       -1.10800
N          3.02900       -0.27000        1.24200
C          2.60700       -1.15200        2.33700
C          2.38300       -0.34900        3.62000
O          3.55400        0.41500        3.95500
C          3.87700        1.33800        2.90400
C          4.16100        0.59800        1.59000
H          2.54900        0.03000       -2.03000
H          3.95600        0.52400       -1.11500
H          3.42400       -1.86700        2.48600
H          1.70700       -1.71900        2.07900
H          2.17700       -1.02600        4.45500
H          1.53000        0.33200        3.51600
H          4.76100        1.90300        3.21300
H          3.04800        2.04500        2.78400
H          5.03100       -0.05800        1.70900
H          4.38000        1.32200        0.80500
