31
15030-72-5.pdb
C          0.94400       -0.12800        0.01700
C          2.47000       -0.10900        0.10900
C          3.00100        1.33000        0.16300
N          2.93100       -0.88700        1.28800
C          2.69000       -0.58600        2.58500
O          1.95400        0.30700        2.98700
O          3.43700       -1.37900        3.39600
C          3.63700       -0.85200        4.71200
C          2.89400       -1.57000        5.81800
C          3.46100       -1.59200        7.10400
C          2.76500       -2.13200        8.18700
C          1.48900       -2.65400        8.00000
C          0.91400       -2.64100        6.73000
C          1.61000       -2.09800        5.64400
C          3.10100       -0.67300       -1.22600
O          2.49600       -0.41400       -2.30300
O          4.17000       -1.33900       -1.04200
H          0.47700        0.29300        0.91300
H          0.57700       -1.15500       -0.09100
H          0.57600        0.45000       -0.83700
H          2.63400        1.86400        1.04600
H          2.69600        1.90900       -0.71600
H          4.09700        1.34900        0.20800
H          3.68300       -1.53500        1.06300
H          3.41100        0.22000        4.77600
H          4.71300       -0.94600        4.89600
H          4.44800       -1.16600        7.27100
H          3.21500       -2.12800        9.17600
H          0.93800       -3.06000        8.84400
H         -0.08800       -3.03900        6.58400
H          1.13100       -2.07200        4.66700
