25
1503-49-7.pdb
O          1.00000       -0.01400        0.07800
C          2.22400       -0.02100       -0.00000
C          2.89700        0.64600       -1.14800
C          2.29300        1.76700       -1.72600
C          2.93800        2.45100       -2.75900
C          4.18100        2.01500       -3.21800
C          4.76800        0.87500       -2.67300
C          4.11700        0.17700       -1.65600
C          3.02100       -0.69000        1.06600
C          2.48200       -1.81000        1.70800
C          3.23700       -2.50400        2.65900
C          4.53200       -2.07700        2.97600
C          5.05400       -0.93200        2.36700
C          4.29200       -0.22800        1.43300
C          5.32500       -2.81000        3.91800
N          5.98000       -3.40300        4.67100
H          1.32700        2.11700       -1.36600
H          2.47300        3.32800       -3.20100
H          4.69000        2.55900       -4.01000
H          5.73100        0.52800       -3.03900
H          4.58000       -0.72600       -1.26600
H          1.47800       -2.15300        1.46100
H          2.81200       -3.38300        3.14100
H          6.05700       -0.58300        2.60900
H          4.71100        0.67400        0.99100
