22
1504-63-8.pdb
O          2.06400        1.66900       -0.23300
C          2.54100        0.34200       -0.08100
C          3.03900       -0.10600       -1.41100
C          4.30000       -0.50000       -1.65100
C          4.79400       -0.92500       -2.96900
C          4.26900       -0.40700       -4.16200
C          4.76100       -0.82200       -5.40300
C          5.80400       -1.75200       -5.45100
C          6.36400       -2.25500       -4.27100
C          5.85800       -1.83600       -3.03500
N          6.31200       -2.20500       -6.75200
O          5.77100       -1.75400       -7.77100
O          7.24800       -3.01700       -6.75400
H          1.75300        1.95700        0.64100
H          1.71300       -0.29500        0.24500
H          3.32500        0.33100        0.68300
H          2.29600       -0.09500       -2.20300
H          5.02500       -0.52100       -0.84000
H          3.47100        0.33300       -4.14200
H          4.32300       -0.41000       -6.30900
H          7.18600       -2.96800       -4.29300
H          6.29700       -2.23800       -2.12500
