18
1504-58-1.pdb
O          4.10400        0.09700        0.73300
C          3.47800       -0.11600       -0.52400
C          2.03000       -0.00700       -0.37400
C          0.83500        0.04000       -0.25500
C         -0.58800        0.02600       -0.10600
C         -1.31300        1.21800       -0.05100
C         -2.70100        1.18200        0.10400
C         -3.36300       -0.04400        0.20100
C         -2.63900       -1.23400        0.14300
C         -1.25300       -1.19900       -0.01100
H          5.05800       -0.01900        0.59100
H          3.75100       -1.11400       -0.88100
H          3.85700        0.62500       -1.23300
H         -0.80500        2.17600       -0.12300
H         -3.26700        2.10800        0.15000
H         -4.44200       -0.07100        0.32500
H         -3.15200       -2.18900        0.22000
H         -0.69300       -2.13000       -0.05300
