23
1505-52-8.pdb
C          0.99200       -0.31400       -0.14600
C          2.47600       -0.11000       -0.06300
C          3.13100        1.11500        0.00100
C          2.64400        2.55100       -0.05600
C          1.29300        2.89500        0.57700
O          0.92200        2.22300        1.58100
O          0.70300        3.87600        0.02600
S          4.83700        0.90600        0.05200
C          4.73400       -0.80000        0.01100
C          5.81400       -1.70700        0.01200
C          5.55300       -3.07700       -0.01300
C          4.24600       -3.53800       -0.03400
C          3.17900       -2.63200       -0.04200
C          3.40800       -1.22900       -0.02400
H          0.46700        0.57700       -0.49900
H          0.59500       -0.59900        0.83400
H          0.75600       -1.11300       -0.85300
H          2.63200        2.85600       -1.11100
H          3.36800        3.20400        0.45200
H          6.83600       -1.33900        0.03200
H          6.38100       -3.78100       -0.01300
H          4.04500       -4.60600       -0.04600
H          2.16000       -3.00800       -0.05800
