14
15069-92-8.pdb
O         -2.29000        0.10500        0.03600
C         -0.93000        0.01100        0.03400
C         -0.28400       -1.21500        0.02600
C          1.11200       -1.24200       -0.00800
C          1.83500       -0.04500       -0.03900
N          1.18500        1.16300       -0.00900
C         -0.16400        1.16100        0.03100
C          3.38000       -0.10500       -0.13600
O          3.91600       -1.26100       -0.18800
O          4.02100        0.99800       -0.16500
H         -2.64700       -0.79300       -0.04800
H         -0.82900       -2.15100        0.03900
H          1.64700       -2.18800       -0.01500
H         -0.62500        2.14300        0.05400
