34
15088-78-5.pdb
O          2.72100        0.23600        0.99200
C          2.26800       -0.04800       -0.11300
C          0.90600       -0.67800       -0.31000
C         -0.22300        0.32200       -0.38400
C         -1.05000        0.37800       -1.51500
C         -2.11700        1.27700       -1.56900
C         -2.36900        2.12900       -0.49500
C         -1.55400        2.08300        0.63400
C         -0.48800        1.18300        0.69200
S          3.14700        0.28600       -1.61300
S          5.10800        0.17800       -0.97000
C          5.29700       -1.55300       -0.65200
O          4.36200       -2.34700       -0.73600
C          6.69700       -1.97200       -0.25500
C          6.97700       -1.80000        1.21700
C          6.21300       -2.48900        2.17100
C          6.46200       -2.32100        3.53400
C          7.48100       -1.47200        3.95700
C          8.25700       -0.79400        3.01900
C          8.00800       -0.95800        1.65500
H          0.72300       -1.35700        0.53400
H          0.92100       -1.32000       -1.20000
H         -0.87600       -0.28200       -2.36100
H         -2.75600        1.31000       -2.44700
H         -3.20200        2.82600       -0.53600
H         -1.75100        2.74400        1.47400
H          0.13100        1.15600        1.58800
H          7.42800       -1.42600       -0.86500
H          6.82600       -3.02900       -0.52100
H          5.41000       -3.15600        1.86100
H          5.85500       -2.84900        4.26500
H          7.67000       -1.33700        5.01900
H          9.05400       -0.13400        3.35100
H          8.62500       -0.41700        0.94000
