15
151-63-3.pdb
N          0.94800       -0.25000       -0.16300
C          2.39600       -0.04100       -0.05300
C          2.90200        0.94800       -1.08900
N          3.32300        1.76900       -1.94900
O          3.77400        2.69700        1.30200
S          4.97300        1.81800        1.90500
O          5.18800        0.73200        0.74300
O          6.16000        2.63200        1.93000
O          4.43500        1.14500        3.05700
H          0.66500       -0.98700        0.48200
H          0.72800       -0.59600       -1.09800
H          2.91300       -0.99600       -0.19000
H          2.60500        0.31800        0.95500
H          2.96000        2.49000        1.80400
H          5.59400        1.19400       -0.02700
