18
15119-34-3.pdb
O         -2.22700        1.81500       -0.00100
C         -1.28200        1.03400       -0.01100
O          0.02900        1.50000       -0.01600
C          1.12500        0.61900       -0.01100
C          2.39800        1.18300        0.00800
C          3.50900        0.34400        0.02400
C          3.33600       -1.04200        0.01800
C          2.05100       -1.59500       -0.00400
C          0.93300       -0.75900       -0.01700
C         -0.42600       -1.27500       -0.02800
C         -1.47100       -0.43300       -0.01900
C         -2.80200       -0.93300       -0.01300
N         -3.86500       -1.39500       -0.00500
H          2.52200        2.26300        0.01300
H          4.51000        0.76800        0.04400
H          4.20700       -1.69400        0.03300
H          1.94200       -2.67700       -0.00800
H         -0.56500       -2.35300       -0.03700
