22
1515-95-3.pdb
C          2.00300       -0.58500       -1.30400
C          2.57000        0.06400       -0.05000
C          3.03200        1.47800       -0.29200
C          2.14700        2.55300       -0.14900
C          2.57700        3.86900       -0.35600
C          3.89900        4.12600       -0.72000
O          4.44600        5.35900       -0.94900
C          3.58900        6.48100       -0.78600
C          4.78100        3.05500       -0.87700
C          4.35400        1.74100       -0.66900
H          1.70100       -1.61600       -1.09000
H          2.74300       -0.60900       -2.11000
H          1.12300       -0.04400       -1.66900
H          3.40600       -0.53600        0.32800
H          1.81200        0.05700        0.74200
H          1.11100        2.37400        0.13400
H          1.85500        4.66600       -0.22300
H          4.16400        7.38000       -1.03100
H          3.25400        6.57200        0.25300
H          2.73900        6.43500       -1.47400
H          5.81300        3.24600       -1.16300
H          5.06500        0.92600       -0.79600
