28
1515-72-6.pdb
C          1.71600       -0.67900       -3.08400
C          2.44500       -1.43900       -1.98700
C          3.69500       -0.68600       -1.52600
C          4.48200       -1.43100       -0.44200
N          4.92500       -2.74500       -0.86900
C          4.49700       -3.91700       -0.30700
O          3.75800       -4.09400        0.64200
C          5.09800       -4.99500       -1.08800
C          4.94600       -6.36400       -0.98700
C          5.62100       -7.15200       -1.92500
C          6.42100       -6.55900       -2.92500
C          6.56100       -5.17000       -3.00300
C          5.88500       -4.41500       -2.06700
C          5.79100       -2.96600       -1.90800
O          6.38000       -2.16600       -2.60800
H          0.82800       -1.23400       -3.40400
H          2.36100       -0.53900       -3.95700
H          1.39400        0.30600       -2.73200
H          2.71400       -2.42900       -2.37300
H          1.76900       -1.59400       -1.13800
H          3.40400        0.29600       -1.13400
H          4.34200       -0.49800       -2.39100
H          3.86900       -1.53000        0.46100
H          5.37300       -0.84900       -0.18400
H          4.31900       -6.80400       -0.21900
H          5.52100       -8.23500       -1.89000
H          6.93000       -7.19500       -3.65000
H          7.16400       -4.70100       -3.77500
