20
1516-32-1.pdb
C          0.95100        0.01600       -0.09600
C          2.47000        0.00200       -0.09400
C          3.02200       -1.42300       -0.11000
C          4.54500       -1.40200       -0.11000
N          5.11800       -2.73300       -0.12500
C          6.43300       -3.04700       -0.12900
N          7.32100       -2.03400       -0.11700
S          6.94100       -4.62500       -0.14700
H          0.58400        1.04800       -0.08400
H          0.55400       -0.49700        0.78500
H          0.55600       -0.47500       -0.99000
H          2.83400        0.53100        0.79500
H          2.83600        0.55200       -0.96900
H          2.65800       -1.95700       -0.99700
H          2.65800       -1.97700        0.76400
H          4.92100       -0.88800        0.78200
H          4.92100       -0.86700       -0.99000
H          4.49300       -3.53200       -0.13400
H          7.05300       -1.06300       -0.10600
H          8.30900       -2.25400       -0.12000
