53
15163-36-7.pdb
C          9.19400       -9.44200        1.67600
C          8.66900       -8.34200        2.58200
C          9.18400       -6.98000        2.13000
C          8.65600       -5.87200        3.03100
C          9.15500       -4.50900        2.56000
C          8.61700       -3.42100        3.47700
C          9.08700       -2.03500        3.04500
C          8.62400       -0.94500        4.01300
C          9.05200       -1.16100        5.46800
C         10.57300       -1.26900        5.62200
N         11.03100       -1.61300        7.05600
C         10.53300       -0.55200        8.03200
C         10.56400       -3.00000        7.45500
C         12.59700       -1.55300        7.01300
C         13.25700       -1.89800        8.35100
C         14.78100       -1.83900        8.28800
S         15.38700       -0.23900        7.81600
O         14.61700        0.65200        8.67600
O         16.81200       -0.33400        8.08000
O         15.01300       -0.18300        6.40000
H          8.81800      -10.41500        2.00500
H         10.28700       -9.47200        1.69300
H          8.87100       -9.28100        0.64200
H          8.98300       -8.53800        3.61300
H          7.57300       -8.35000        2.56800
H          8.87300       -6.79000        1.09600
H         10.28100       -6.97300        2.14500
H          8.98000       -6.04900        4.06500
H          7.55900       -5.88300        3.03200
H          8.83500       -4.32400        1.52900
H         10.25200       -4.49300        2.57300
H          8.95700       -3.64500        4.49400
H          7.52100       -3.44600        3.49000
H          8.69600       -1.81100        2.04500
H         10.17900       -2.01800        2.95200
H          7.52900       -0.88500        3.98100
H          9.00100        0.02400        3.66600
H          8.54500       -2.04800        5.85900
H          8.67000       -0.31600        6.05000
H         11.03800       -0.31500        5.34800
H         10.99000       -2.05600        4.98300
H          9.43800       -0.56800        8.03600
H         10.90500        0.42200        7.70700
H         10.87600       -0.79500        9.03800
H          9.47300       -3.02800        7.44900
H         10.90300       -3.21800        8.47000
H         10.97100       -3.72200        6.74300
H         12.80800       -0.53300        6.69000
H         12.91500       -2.25800        6.23700
H         12.98400       -2.90800        8.66800
H         12.91500       -1.21500        9.13200
H         15.18300       -2.57300        7.58500
H         15.19200       -2.05600        9.28400
