20
1518-16-7.pdb
N          4.20000       -2.16100       -0.03600
C          3.57900       -1.18000       -0.02200
C          2.80600        0.01900        0.00600
C          3.55200        1.23400        0.03600
N          4.13800        2.23500        0.05500
C          1.44500        0.00800        0.00400
C          0.68300       -1.25400       -0.05500
C         -0.66200       -1.26100       -0.05800
C         -1.44200       -0.00700       -0.00300
C         -0.67800        1.25400        0.05800
C          0.66700        1.26200        0.06100
C         -2.80200       -0.01800       -0.00700
C         -3.54700       -1.23400       -0.03700
N         -4.13300       -2.23500       -0.05500
C         -3.57700        1.18000        0.01700
N         -4.19900        2.15900        0.03100
H          1.20100       -2.20900       -0.10800
H         -1.16900       -2.22200       -0.11400
H         -1.19700        2.21000        0.11100
H          1.17400        2.22200        0.11700
