29
15190-10-0.pdb
N          0.99300        0.05700        0.08200
C          2.25400        0.05700        0.08200
C          3.77400        0.05700        0.08200
N          4.42600       -1.22600       -0.27700
C          4.15000       -1.72900       -1.63800
C          2.80700       -2.46500       -1.80800
O          2.64800       -3.50400       -0.83400
C          2.78800       -3.01100        0.50100
C          4.14300       -2.30700        0.69300
C          4.30300        1.24200       -0.74700
C          5.52200        1.84400       -0.40700
C          5.99300        2.95800       -1.10700
C          5.25700        3.48500       -2.16800
C          4.05500        2.88400       -2.53800
C          3.58300        1.77500       -1.84200
H          4.05700        0.28700        1.12000
H          4.94500       -2.45100       -1.86700
H          4.25100       -0.94400       -2.39400
H          2.77900       -2.93900       -2.79400
H          1.95400       -1.78400       -1.76600
H          2.72500       -3.87000        1.17700
H          1.93900       -2.37100        0.74700
H          4.92900       -3.06300        0.56000
H          4.24800       -1.94600        1.72300
H          6.11600        1.45100        0.41800
H          6.93300        3.42300       -0.82200
H          5.62200        4.35700       -2.70500
H          3.47800        3.29700       -3.36500
H          2.63800        1.34300       -2.16200
