19
1520-27-0.pdb
N          1.14700        0.10300       -0.30800
C          2.46600       -0.06700        0.02000
S          2.81500       -0.54200        1.57200
N          3.29400        0.27200       -1.02500
C          4.69400        0.16200       -1.15800
C          5.47700       -0.76800       -0.46800
C          6.86900       -0.78000       -0.61700
C          7.47500        0.12800       -1.47500
O          8.82900        0.17400       -1.62200
C          6.71000        1.01900       -2.21500
C          5.32100        1.02700       -2.06600
H          0.47800       -0.18800        0.39700
H          0.84900       -0.01800       -1.26600
H          2.84900        0.88500       -1.69700
H          5.03200       -1.51600        0.17700
H          7.45200       -1.50400       -0.05700
H          9.22800       -0.42600       -0.96800
H          7.19400        1.71700       -2.89300
H          4.74400        1.74500       -2.64200
