22
15212-03-0.pdb
C          0.98100       -0.42300        0.60100
O          2.30800       -0.06600        0.22700
C          3.03000        0.65400        1.14400
C          2.68400        0.78600        2.49400
C          3.48800        1.52700        3.36400
C          4.65700        2.12700        2.89900
C          5.02500        1.98800        1.56000
C          4.20500        1.27300        0.68500
O          4.56500        1.07700       -0.67000
C          5.20200        2.07500       -1.40300
C          5.51900        1.55600       -2.77600
O          5.49800        3.20100       -1.02400
H          0.51200       -0.92000       -0.25300
H          0.38800        0.46700        0.83800
H          0.97700       -1.13300        1.43500
H          1.79900        0.31400        2.90900
H          3.21000        1.62600        4.41000
H          5.28600        2.69800        3.57700
H          5.94800        2.44800        1.22300
H          4.63000        1.10000       -3.22100
H          6.33700        0.83400       -2.71800
H          5.82700        2.39000       -3.41500
