25
153-78-6.pdb
N          1.00600       -0.04600        0.16600
C          2.39400       -0.04900       -0.03600
C          3.09900       -1.26900       -0.01300
C          4.49900       -1.30800       -0.04600
C          5.19100       -0.11200       -0.06400
C          4.49200        1.11300       -0.05000
C          5.46500        2.27300       -0.04100
C          6.80300        1.56100       -0.05500
C          8.07000        2.12000       -0.05300
C          9.16700        1.25400       -0.05800
C          8.98400       -0.14000       -0.06100
C          7.70000       -0.69500       -0.06400
C          6.61200        0.16300       -0.06300
C          3.10400        1.15600       -0.01800
H          0.54200       -0.89200       -0.14900
H          0.54300        0.79700       -0.15600
H          2.55200       -2.20700        0.03700
H          5.01900       -2.26100       -0.03500
H          5.35200        2.86500        0.87100
H          5.34500        2.88700       -0.93800
H          8.21300        3.19400       -0.04700
H         10.17500        1.66200       -0.05700
H          9.85200       -0.79400       -0.06100
H          7.56900       -1.77100       -0.06200
H          2.58800        2.10800        0.02900
