31
1530-03-6.pdb
C          0.93300       -0.18200        0.20900
C          2.45400       -0.08600        0.12900
C          3.08000       -1.00900       -0.94800
C          2.56400       -0.67300       -2.34500
C          2.76100        0.60200       -2.89500
C          2.32200        0.89300       -4.18800
C          1.68800       -0.08500       -4.94600
C          1.46600       -1.35000       -4.40800
C          1.89400       -1.64100       -3.10900
C          4.61500       -1.03800       -0.93900
C          5.28300       -2.20300       -1.35900
C          6.67600       -2.23200       -1.47500
C          7.42300       -1.09600       -1.17600
C          6.78200        0.06000       -0.74100
C          5.39100        0.08800       -0.62000
H          0.55900        0.50300        0.97700
H          0.61300       -1.19500        0.47100
H          0.45600        0.09900       -0.73400
H          2.86900       -0.34300        1.11100
H          2.70900        0.96400       -0.05200
H          2.75400       -2.02900       -0.69300
H          3.26300        1.37800       -2.32400
H          2.48800        1.88500       -4.60400
H          1.36400        0.13800       -5.96000
H          0.96500       -2.11300       -4.99700
H          1.69900       -2.63000       -2.70300
H          4.71700       -3.09400       -1.62300
H          7.17300       -3.13500       -1.81800
H          8.50400       -1.10900       -1.29100
H          7.36300        0.95000       -0.51200
H          4.92800        1.01700       -0.30000
