37
15310-28-8.pdb
C          2.41900        0.30800       -0.19000
C          0.92000        0.24300       -0.12900
C          0.24400        0.20400        1.09800
C         -1.15200        0.13800        1.14000
C         -1.87500        0.12100       -0.05600
C         -1.21300        0.14400       -1.28600
C          0.18000        0.20900       -1.31900
S         -3.65100       -0.07800       -0.02800
O         -3.98700       -0.75300       -1.26500
O         -3.97100       -0.66600        1.25700
C         -4.25300        1.56400       -0.06400
S         -6.00600        1.64600       -0.06300
O         -6.34800        3.06100       -0.07200
O         -6.54300        0.78600       -1.09400
C         -6.54500        1.04100        1.51500
C         -6.18200        1.74800        2.66400
C         -6.59800        1.29200        3.91400
C         -7.39400        0.14500        4.02200
C         -7.83600       -0.35500        5.36600
C         -7.77700       -0.53700        2.85800
C         -7.35700       -0.09200        1.60200
H          2.86500        0.30700        0.81000
H          2.73300        1.22500       -0.69800
H          2.81500       -0.55600       -0.73500
H          0.80500        0.20200        2.03200
H         -1.65400        0.07000        2.10200
H         -1.76400        0.08100       -2.22300
H          0.69200        0.20900       -2.28000
H         -3.90000        2.05400       -0.97500
H         -3.87700        2.10700        0.80600
H         -5.59000        2.65700        2.60100
H         -6.30300        1.84200        4.80600
H         -7.47000        0.28900        6.17300
H         -7.44600       -1.36300        5.54000
H         -8.92900       -0.37400        5.42400
H         -8.40600       -1.42300        2.92600
H         -7.66900       -0.63100        0.71000
