27
153277-35-1.pdb
O          1.28500       -0.13400        0.13800
S          2.73400       -0.12500       -0.03800
O          3.40500       -1.39300        0.23300
O          3.23700        0.61600       -1.18900
C          3.26600        0.92800        1.33500
C          4.14700        0.44400        2.30600
C          4.59100        1.30000        3.31500
C          4.14600        2.63000        3.34900
C          4.67500        3.55000        4.37900
O          5.49000        3.16300        5.21000
C          4.22000        4.95500        4.39000
C          4.75000        5.85300        5.32700
C          4.31100        7.17900        5.35400
C          3.33700        7.61000        4.45500
C          2.81300        6.72000        3.51700
C          3.26200        5.39300        3.47900
C          2.72300        4.47600        2.45800
O          1.86600        4.87500        1.67900
C          3.23000        3.09100        2.39700
C          2.79000        2.24200        1.38000
H          4.49400       -0.58600        2.26000
H          5.29000        0.92900        4.06100
H          5.50900        5.52300        6.03400
H          4.72700        7.87400        6.07900
H          2.98600        8.63900        4.47700
H          2.05600        7.06100        2.81200
H          2.09700        2.58300        0.61300
