26
15329-69-8.pdb
O          4.15700        3.11700       -0.50900
C          3.51700        2.65500        0.57300
O          2.30700        2.77500        0.71300
C          4.31200        2.00000        1.63000
C          5.50500        1.38900        1.58500
C          6.32600        1.35200        0.36700
O          6.53000        2.38100       -0.26700
N          6.73300        0.10500        0.00400
C          7.43400       -0.11400       -1.23800
C          8.92600       -0.11200       -1.04800
C          9.61900       -1.30600       -0.81100
C         11.00700       -1.30100       -0.66800
C         11.71400       -0.10200       -0.75000
C         11.03300        1.09500       -0.95900
C          9.64500        1.09200       -1.10200
H          5.14100        3.06300       -0.49400
H          3.76100        1.96000        2.56700
H          5.91000        0.89600        2.46200
H          6.49500       -0.70200        0.56700
H          7.14800        0.65000       -1.97100
H          7.10000       -1.07700       -1.64000
H          9.08300       -2.25000       -0.75000
H         11.54000       -2.23300       -0.50000
H         12.79600       -0.10100       -0.65000
H         11.58200        2.03200       -1.01700
H          9.12400        2.03500       -1.26400
