33
1533-20-6.pdb
C          0.87500        0.09200       -0.05900
C          2.40600        0.05700        0.03000
C          2.97600       -1.37100       -0.06900
C          2.62600       -2.25100        1.12400
O          1.96800       -1.84000        2.07800
C          3.11800       -3.66500        1.14900
C          3.94800       -4.18800        0.15000
C          4.42000       -5.50100        0.24700
C          4.06400       -6.29800        1.33400
C          3.22300       -5.78900        2.32300
C          2.75100       -4.48000        2.23000
C          3.00600        0.96100       -1.04400
C          3.81100        2.05000       -0.67100
C          4.32000        2.92200       -1.63800
C          4.03500        2.71600       -2.98500
C          3.25300        1.63100       -3.37200
C          2.74700        0.75400       -2.40800
H          0.40500       -0.46500        0.75500
H          0.50800       -0.33400       -0.99900
H          0.50900        1.12400        0.00300
H          2.67900        0.46500        1.01400
H          4.07200       -1.31000       -0.11300
H          2.61700       -1.85900       -0.98300
H          4.25400       -3.59700       -0.70800
H          5.07500       -5.90100       -0.52400
H          4.44300       -7.31400        1.41200
H          2.94200       -6.41000        3.17000
H          2.10100       -4.09500        3.01300
H          4.03200        2.23800        0.37700
H          4.92900        3.76800       -1.33400
H          4.41800        3.40500       -3.73400
H          3.02600        1.47100       -4.42200
H          2.12700       -0.07700       -2.73500
