21
15341-08-9.pdb
O          1.12800       -0.56700       -0.37000
C          2.40600       -0.11400        0.04900
C          2.85900        0.92900       -0.92400
C          2.60100        2.27100       -0.67900
O          2.01100        2.77400        0.44500
C          1.99700        4.18500        0.15000
O          2.57000        4.50400       -1.13200
C          2.91900        3.26900       -1.57700
C          3.51900        3.00100       -2.79000
C          3.80100        1.66900       -3.08800
C          3.47000        0.65200       -2.16200
N          3.81500       -0.71000       -2.53100
O          4.57500       -1.32600       -1.77100
O          3.38100       -1.13300       -3.61200
H          0.75400       -1.07400        0.37100
H          3.08300       -0.96800        0.11200
H          2.32600        0.29900        1.06100
H          2.56500        4.70700        0.92800
H          0.96000        4.53800        0.17300
H          3.75700        3.80000       -3.48400
H          4.27400        1.42000       -4.03700
