38
154-92-7.pdb
N          1.05600        1.95300       -3.13800
C          2.37700        2.21200       -3.22400
N          2.74400        2.53200       -4.48400
N          3.10200        2.08900       -2.17800
C          4.54000        2.31000       -2.30700
C          5.17600        2.13900       -0.92900
C          6.70100        2.28900       -0.94600
C          7.18900        3.68900       -1.35600
N          6.68400        4.77700       -0.51900
C          6.91100        4.83600        0.83300
O          7.55800        3.97500        1.42300
C          6.41800        6.02600        1.56100
C          6.09200        5.88000        2.91300
C          5.78300        7.00200        3.67800
C          5.80300        8.27000        3.09400
C          6.10700        8.41400        1.74000
C          6.41200        7.29400        0.96700
C          8.72200        3.73800       -1.48100
O          9.40200        3.57500       -0.32400
O          9.29600        3.90200       -2.55100
H          0.43300        2.52400       -3.68600
H          0.76100        1.86000       -2.17100
H          2.05000        2.95400       -5.08100
H          3.67400        2.90700       -4.61100
H          4.73100        3.32000       -2.68400
H          4.97600        1.58200       -3.00200
H          4.93000        1.14100       -0.54300
H          4.73200        2.85200       -0.22400
H          7.13200        1.54200       -1.62400
H          7.07600        2.02500        0.04900
H          6.81900        3.91100       -2.36400
H          6.03800        5.43300       -0.94000
H          6.11000        4.89600        3.37900
H          5.55700        6.89200        4.73600
H          5.60300        9.14700        3.70200
H          6.13900        9.40600        1.29500
H          6.70200        7.43200       -0.07000
H          8.80800        3.52500        0.46700
