23
154-17-6.pdb
O          0.83600        0.11800        0.58200
C          2.16200        0.01700        0.07800
C          2.91300       -1.17300        0.71400
O          4.24200       -1.29100        0.19100
C          4.30500       -1.76100       -1.15200
O          5.67300       -1.86600       -1.50700
C          3.62500       -3.11200       -1.31900
C          2.20300       -3.08200       -0.78500
O          1.69800       -4.42100       -0.81000
C          2.18300       -2.52600        0.64500
O          0.83800       -2.50000        1.12500
H          0.48400        0.97600        0.27400
H          2.70100        0.94600        0.29700
H          2.10100       -0.07200       -1.01200
H          3.01300       -0.92800        1.78100
H          3.86400       -1.02200       -1.82300
H          6.04400       -2.55800       -0.93200
H          4.19100       -3.88800       -0.78600
H          3.63900       -3.42600       -2.37000
H          1.55200       -2.48400       -1.43400
H          1.14100       -4.52400       -0.01300
H          2.71500       -3.24100        1.28600
H          0.50000       -1.58500        1.00700
