23
154-58-5.pdb
O          2.44900        0.62000       -2.88000
C          2.49800        1.71500       -1.96300
C          2.94900        1.22400       -0.58100
O          4.25200        0.62900       -0.72000
C          4.73600        0.08300        0.50900
C          4.88700        1.16600        1.57600
O          5.36600        0.58700        2.79200
C          3.54400        1.88500        1.77100
O          3.67900        2.97600        2.69200
C          2.98400        2.38000        0.42800
O          1.67500        2.93400        0.58300
H          3.32900        0.20400       -2.83800
H          1.50200        2.16600       -1.92400
H          3.20100        2.44700       -2.37100
H          2.25000        0.44300       -0.25300
H          5.70700       -0.38800        0.31700
H          4.06800       -0.71800        0.84900
H          5.64000        1.89600        1.25600
H          4.61800        0.48100        3.40600
H          2.82600        1.20500        2.24400
H          4.38400        3.56100        2.36800
H          3.63000        3.18600        0.05800
H          1.36200        2.75200        1.48700
