22
15400-53-0.pdb
C          6.05900        0.53400       -1.41100
C          5.27400        0.67700       -0.11900
O          5.32400       -0.58300        0.56100
C          4.37200       -1.48600        0.22500
O          3.33900       -1.23700       -0.38000
C          4.85400       -2.84700        0.51800
C          4.33400       -3.87000       -0.17700
N          4.77600       -5.17100       -0.13700
C          5.81300       -5.41900        0.59400
N          6.34900       -6.66100        0.64400
N          6.41700       -4.46400        1.35000
C          5.97200       -3.17500        1.42200
O          6.48000       -2.38300        2.20900
H          6.08100        1.47300       -1.96900
H          5.62400       -0.24600       -2.04500
H          7.08700        0.22300       -1.19700
H          4.24600        1.00600       -0.30200
H          5.75100        1.42000        0.52900
H          3.52500       -3.69500       -0.88500
H          5.73600       -7.37200        0.25700
H          6.82900       -6.94300        1.48400
H          7.21100       -4.69300        1.92900
