27
1540-36-9.pdb
C          0.99000       -0.06800        0.10300
C          2.50800       -0.00100        0.15100
C          3.02400        1.31000       -0.45100
C          4.56000        1.37500       -0.40700
C          5.15600        2.67200       -1.00000
C          4.71200        3.91800       -0.24900
C          4.58500        5.23100       -0.98800
O          4.46400        3.88300        0.94900
C          6.66400        2.59500       -1.18600
C          7.60200        2.34800       -0.02700
O          7.14800        2.79800       -2.31400
H          0.63600       -0.99900        0.55700
H          0.63000       -0.03100       -0.93000
H          0.54600        0.76900        0.65200
H          2.92700       -0.85700       -0.39200
H          2.83800       -0.08500        1.19300
H          2.58800        2.14400        0.11100
H          2.67900        1.39700       -1.48900
H          4.93900        0.51300       -0.97400
H          4.88500        1.24000        0.63300
H          4.75200        2.75400       -2.01900
H          4.67000        5.12800       -2.07300
H          5.36500        5.90900       -0.63300
H          3.60300        5.66400       -0.76600
H          7.10200        1.95500        0.85700
H          8.10300        3.28600        0.23300
H          8.35700        1.61400       -0.33500
