33
154170-44-2.pdb
C          0.93200       -0.01600        0.00800
C          2.45000        0.00300        0.03500
C          2.98500        0.47300        1.38900
C          4.51600        0.47000        1.38200
C          5.12400        0.93400        2.71200
O          4.71500        0.06400        3.76900
C          6.67300        1.03000        2.69000
C          7.33900       -0.32900        2.42100
C          7.20900        2.07300        1.68400
C          6.71900        3.49900        1.96200
C          7.24700        4.48500        0.93500
H          0.57700       -0.36400       -0.96700
H          0.52500        0.98500        0.18200
H          0.53600       -0.68900        0.77500
H          2.81600        0.66400       -0.76000
H          2.82600       -1.00300       -0.18400
H          2.61100       -0.18500        2.18100
H          2.61900        1.48400        1.60200
H          4.85600        1.11600        0.56600
H          4.84800       -0.55000        1.15600
H          4.70800        1.91100        2.97300
H          4.92900       -0.84800        3.51300
H          6.99500        1.33300        3.69600
H          7.08200       -0.72000        1.43300
H          7.05000       -1.07100        3.17000
H          8.43000       -0.23800        2.46400
H          6.94300        1.78500        0.65900
H          8.30600        2.07000        1.72000
H          7.04300        3.80700        2.96400
H          5.62700        3.54600        1.94200
H          8.34300        4.50300        0.92900
H          6.88900        5.49400        1.16400
H          6.90000        4.22400       -0.07000
