21
1541-10-2.pdb
C          0.97800        0.06100        0.03300
C          2.47500        0.07100        0.03500
C          3.20700       -1.11700        0.03700
C          4.61700       -1.11300        0.04000
C          5.31500       -2.45300        0.04300
C          5.30800        0.12400        0.04100
S          7.04400        0.13400        0.04700
C          4.58000        1.33400        0.03800
C          5.18300        2.71800        0.03500
C          3.16900        1.28200        0.03500
H          0.58100       -0.95900        0.03000
H          0.59800        0.57000       -0.85900
H          0.59600        0.56600        0.92600
H          2.68100       -2.06800        0.03600
H          4.59700       -3.28000        0.03900
H          5.92700       -2.57000        0.94300
H          5.93500       -2.56900       -0.85300
H          6.27300        2.74600        0.03400
H          4.85000        3.26500        0.92400
H          4.84900        3.26100       -0.85700
H          2.61000        2.21500        0.03400
