25
15486-19-8.pdb
C          0.99100        0.01100        0.17700
C          2.46100        0.26900        0.03400
O          2.93000        1.04800       -0.78300
O          3.16300       -0.53200        0.94100
C          4.57000       -0.44700        1.03000
C          5.26300        0.74100        0.81900
C          6.66000        0.75500        0.90200
C          7.37100       -0.40100        1.24900
C          8.84500       -0.41900        1.29600
C          9.58500        0.66200        1.59800
C         11.05500        0.73700        1.68000
O         11.72100       -0.21500        1.00200
O         11.61400        1.63100        2.29300
C          6.65200       -1.57900        1.49400
C          5.25400       -1.60200        1.39200
H          0.44500        0.72200       -0.45300
H          0.67800        0.16600        1.21200
H          0.75700       -1.00200       -0.15700
H          4.75200        1.66600        0.57300
H          7.16700        1.68800        0.67500
H          9.29800       -1.38400        1.09600
H          9.11900        1.60300        1.87800
H         11.17000       -0.77000        0.42600
H          7.17100       -2.49400        1.77900
H          4.71300       -2.52400        1.59500
