20
1552-12-1.pdb
C          8.37600       -1.15000        1.20300
C          9.85100       -0.67500        1.39600
C         10.01700        0.66500        0.69400
C         10.44200        0.66800       -0.57900
C          9.42500        1.00700       -1.66300
C          8.82500       -0.33400       -2.19300
C          7.80600       -0.82600       -1.17600
C          8.23200       -1.67600       -0.21500
H          7.66900       -0.32300        1.39300
H          8.13100       -1.94700        1.90600
H         10.54300       -1.42000        0.97200
H         10.09400       -0.57800        2.45200
H          9.28400        1.40300        1.02100
H         11.19300       -0.05000       -0.91200
H          9.89400        1.57400       -2.47300
H          8.62100        1.63400       -1.25400
H          9.62800       -1.07400       -2.32900
H          8.34900       -0.19200       -3.16600
H          7.05300       -0.07900       -0.93500
H          8.97700       -2.43100       -0.46700
