41
15625-89-5.pdb
C          3.04500        0.32200       -1.42100
C          2.60300        0.03300        0.01000
C          3.13400        1.00600        1.10700
C          2.61500        2.45500        0.84700
O          3.04200        3.37400        1.87300
C          2.19200        3.55600        2.91600
O          1.01300        3.25000        2.95300
C          3.01600        3.93700        4.08400
C          2.67500        3.51300        5.30900
C          2.59400        0.51300        2.48000
O          3.11800       -0.77700        2.83500
C          3.67800       -0.85500        4.07200
O          3.76500        0.03800        4.90100
C          4.19300       -2.22400        4.25700
C          4.98000       -2.51100        5.30100
C          4.68600        0.97800        1.11700
O          5.21900        1.80800        2.15900
C          6.11600        1.24000        3.00100
O          6.53500        0.09600        2.96400
C          6.51700        2.26500        3.98900
C          7.22200        1.92600        5.07700
H          2.66800       -0.46300       -2.08600
H          4.13300        0.33200       -1.52100
H          2.64900        1.27500       -1.78000
H          2.91500       -0.99100        0.25100
H          1.50600        0.03000        0.03000
H          1.52400        2.47100        0.73400
H          3.02900        2.84100       -0.09100
H          3.94700        4.45500        3.89900
H          1.77500        2.92700        5.47900
H          3.31800        3.69200        6.16400
H          1.50200        0.42300        2.44500
H          2.83000        1.23300        3.26000
H          3.92200       -2.96800        3.52000
H          5.26400       -1.74900        6.02200
H          5.37300       -3.51100        5.44300
H          5.07900        1.38800        0.18000
H          5.04500       -0.05500        1.18600
H          6.20700        3.28600        3.80500
H          7.51200        0.89700        5.26400
H          7.50800        2.67500        5.80700
