27
15646-46-5.pdb
C          1.13100       -2.02200        0.06900
C          2.63200       -2.13400        0.25800
O          3.09500       -0.97200        0.95100
C          4.45500       -0.99300        1.12900
C          5.20400        0.10600        1.24000
N          4.79400        1.41400        1.20100
C          5.91400        2.05500        1.30100
O          7.05400        1.33000        1.41500
C          6.67600        0.02300        1.40700
O          7.38900       -0.95500        1.50500
C          6.10300        3.50800        1.36900
C          5.05300        4.30200        1.84200
C          5.22800        5.68000        1.97600
C          6.44200        6.26700        1.61900
C          7.48100        5.48100        1.12000
C          7.31600        4.10000        0.99600
H          0.73300       -2.91900       -0.41300
H          0.88300       -1.15200       -0.54900
H          0.62800       -1.88400        1.03200
H          3.12100       -2.20800       -0.72100
H          2.85600       -3.03300        0.84400
H          4.88500       -1.98600        1.19200
H          4.10500        3.84900        2.12700
H          4.41900        6.29400        2.36400
H          6.57900        7.34000        1.73000
H          8.42300        5.94400        0.83300
H          8.13500        3.50000        0.60700
