23
15679-11-5.pdb
C          0.17400        1.80300        1.81100
C          0.34000        0.66800        0.86300
S         -0.61200        0.57100       -0.56100
C          0.17800       -0.88800       -0.97600
C          1.12100       -1.22200       -0.01700
N          1.19800       -0.31500        1.03200
C          2.04000       -2.43600       -0.03000
C          2.92700       -2.41700       -1.29200
C          2.96000       -2.45300        1.20900
C          1.21500       -3.73900       -0.02800
H         -0.59300        2.51200        1.48700
H          1.11700        2.34700        1.91200
H         -0.11000        1.42500        2.79900
H         -0.07300       -1.41800       -1.88300
H          3.54900       -1.51500       -1.32600
H          2.32500       -2.43500       -2.20800
H          3.59400       -3.28600       -1.32200
H          3.59400       -1.55900        1.24700
H          3.62000       -3.32800        1.20500
H          2.37600       -2.48400        2.13700
H          0.56200       -3.80500       -0.90600
H          0.57800       -3.80500        0.86100
H          1.86700       -4.61900       -0.03800
