17
15679-12-6.pdb
C          0.98300        0.37900        0.15000
C          2.43600       -0.04700        0.01300
C          2.86100       -0.88000        1.18100
S          3.58700       -0.15100        2.55800
C          3.65300       -1.68400        3.31700
C          3.13800       -2.65400        2.47800
C          3.01100       -4.10400        2.76300
N          2.69400       -2.18300        1.25400
H          0.67200        0.96000       -0.72500
H          0.83300        1.00000        1.04000
H          0.32200       -0.49000        0.23400
H          3.07600        0.83600       -0.09300
H          2.55600       -0.63500       -0.90500
H          4.05200       -1.80000        4.31400
H          3.34500       -4.34400        3.77700
H          3.61600       -4.68200        2.05700
H          1.96800       -4.41800        2.66300
