19
1568-70-3.pdb
C          1.02200       -0.09100        0.00100
O          2.44500       -0.11400       -0.01000
C          3.08700        1.09300       -0.02100
C          2.46900        2.34800       -0.02200
C          3.23600        3.52100       -0.04200
C          4.62700        3.44600       -0.06000
O          5.36500        4.59200       -0.05300
C          5.23600        2.19200       -0.06000
C          4.48000        1.01500       -0.03500
N          6.68000        2.07700       -0.08600
O          7.27500        2.54100       -1.06800
O          7.20900        1.46100        0.85100
H          0.67000       -1.12700       -0.00800
H          0.62700        0.40100       -0.89500
H          0.64300        0.38300        0.91200
H          1.38800        2.45000       -0.00500
H          2.72500        4.48000       -0.03600
H          4.77800        5.36500       -0.11400
H          4.96700        0.04200       -0.03200
