36
1571-86-4.pdb
C          6.40700        1.89600       -1.08300
C          5.28400        0.95500       -0.67400
C          5.67100        0.15400        0.56700
C          4.54100       -0.77500        1.01900
C          4.89400       -1.54800        2.26600
C          5.22600       -0.87900        3.45100
C          5.53200       -1.59100        4.61200
C          5.48000       -2.98800        4.62300
C          5.74900       -3.75900        5.89200
C          4.79700       -3.41100        7.04500
C          3.32800       -3.70000        6.72200
C          2.42700       -3.35900        7.89900
C          5.15500       -3.66000        3.43700
C          4.86400       -2.94800        2.27200
H          6.11900        2.47100       -1.96900
H          7.31800        1.33800       -1.32000
H          6.63800        2.60300       -0.27900
H          5.05700        0.27700       -1.50400
H          4.37900        1.54100       -0.47400
H          5.93300        0.85500        1.36900
H          6.57200       -0.43700        0.36000
H          4.30000       -1.46900        0.20300
H          3.62800       -0.19900        1.21600
H          5.24500        0.20800        3.48400
H          5.79400       -1.04100        5.51200
H          6.78200       -3.55800        6.20300
H          5.69400       -4.83800        5.69700
H          4.91000       -2.35600        7.32300
H          5.09400       -3.99600        7.92400
H          3.20500       -4.75700        6.46400
H          3.00300       -3.11300        5.85700
H          2.68600       -3.95700        8.77800
H          1.38200       -3.56100        7.64600
H          2.51300       -2.30100        8.16500
H          5.11200       -4.74800        3.41600
H          4.60400       -3.49700        1.37000
