21
15733-89-8.pdb
O          1.09300       -0.56500       -0.24400
C          2.35800       -0.13200       -0.04500
O          2.77200        0.86600       -0.61600
C          3.18000       -0.95000        0.89800
C          2.90700       -2.26300        1.01000
C          3.71300       -3.16800        1.85600
O          3.38500       -4.34300        1.99100
N          4.81700       -2.64300        2.44200
C          5.18100       -1.29800        2.34100
C          6.34700       -0.87000        2.98600
C          6.71700        0.47000        2.92300
C          5.91900        1.37300        2.23000
C          4.75500        0.93900        1.58200
C          4.37400       -0.41000        1.60600
H          0.76600       -1.26100        0.35100
H          2.11700       -2.77600        0.47800
H          5.37100       -3.27600        2.99300
H          6.97000       -1.57000        3.53600
H          7.62500        0.80800        3.41400
H          6.20100        2.42300        2.18300
H          4.17100        1.68700        1.05300
