36
157634-00-9.pdb
C          4.14000       -0.84700        1.63800
C          3.01600        0.08300        1.15700
C          2.26800       -0.48300       -0.06100
C          1.99700        0.20700        2.30400
O          3.52200        1.42500        0.89200
C          4.41000        1.59300       -0.12700
O          4.83600        0.67800       -0.82000
N          4.78800        2.91200       -0.35000
C          5.62800        3.20000       -1.51100
C          6.88100        3.96900       -1.11900
C          6.53800        5.21400       -0.31000
C          5.66100        4.85300        0.89500
C          4.40100        4.05900        0.49700
C          3.36800        4.96700       -0.20300
O          2.18800        4.24600       -0.53800
H          3.75700       -1.84500        1.87700
H          4.61900       -0.43900        2.53600
H          4.93300       -0.97100        0.89600
H          1.82900       -1.46200        0.15800
H          2.91200       -0.61000       -0.93500
H          1.46600        0.19800       -0.36800
H          1.57500       -0.77400        2.56600
H          1.16700        0.86800        2.02800
H          2.45500        0.63000        3.20200
H          5.02500        3.77700       -2.22000
H          5.92100        2.28100       -2.02900
H          7.43900        4.24900       -2.02000
H          7.53500        3.32000       -0.52300
H          6.02100        5.93900       -0.94900
H          7.45900        5.69500        0.03500
H          5.38700        5.76400        1.43800
H          6.25900        4.24100        1.58400
H          3.93600        3.67700        1.41300
H          3.76000        5.40700       -1.12600
H          3.07900        5.79300        0.45700
H          2.47700        3.47200       -1.05400
