27
15761-38-3.pdb
C          1.81500       -1.58100        1.48600
C          0.75700       -0.52800        1.18900
N          0.99900        0.06300       -0.15100
C          0.43300       -0.50000       -1.25900
O          1.10100       -0.91400       -2.19900
O         -0.92500       -0.50800       -1.20400
C         -1.68700       -1.05500       -2.31400
C         -1.40600       -2.55100       -2.50800
C         -3.17400       -0.90100       -1.93700
C         -1.44800       -0.25000       -3.60000
C          0.74700        0.55800        2.31700
O          0.77600        1.74800        1.88000
O          0.66400        0.13100        3.50300
H          1.62600       -2.08300        2.44100
H          2.81200       -1.12900        1.53800
H          1.83700       -2.34500        0.70300
H         -0.23300       -0.99900        1.18900
H          0.72000        1.03500       -0.04200
H         -1.62700       -3.10900       -1.59000
H         -0.35700       -2.75200       -2.74500
H         -2.01100       -2.97000       -3.31900
H         -3.40500       -1.44200       -1.01300
H         -3.83000       -1.28100       -2.73000
H         -3.42700        0.15000       -1.75700
H         -0.42000       -0.33900       -3.96000
H         -1.62900        0.81600       -3.42500
H         -2.10700       -0.58600       -4.40800
