20
15764-16-6.pdb
C          2.49800        1.08900        0.00900
C          1.20400        0.32900        0.00400
C          1.20700       -1.06700        0.00700
C          0.00400       -1.77000        0.00200
C         -1.22600       -1.09400       -0.00400
C         -2.45000       -1.93100       -0.01200
O         -2.40200       -3.15800       -0.01300
C         -1.25600        0.31300       -0.00200
C         -2.51400        1.13800       -0.00600
C         -0.02600        1.00700       -0.00100
H          3.35900        0.41000        0.00200
H          2.57200        1.70900        0.90800
H          2.57100        1.72400       -0.87900
H          2.14400       -1.62000        0.01100
H          0.03100       -2.85900        0.00200
H         -3.42600       -1.42900       -0.01700
H         -3.43100        0.55000        0.03000
H         -2.55900        1.74700       -0.91400
H         -2.53100        1.79700        0.86900
H         -0.02700        2.09700       -0.00400
