21
1576-85-8.pdb
C          1.06700        0.81700       -1.76500
C          2.55900        0.90700       -1.77800
O          3.17800        1.88000       -2.19300
O          3.11900       -0.22600       -1.27600
C          4.55600       -0.23600       -1.25600
C          5.09800       -0.62500       -2.63000
C          6.62500       -0.63200       -2.64200
C          7.16400       -1.00100       -3.99400
C          7.95300       -2.06000       -4.21400
H          0.65600        1.73500       -2.19900
H          0.70700        0.72800       -0.73700
H          0.73400       -0.02900       -2.37100
H          4.86600       -0.97300       -0.50600
H          4.94300        0.73500       -0.92500
H          4.72000        0.07000       -3.39000
H          4.70400       -1.61100       -2.90800
H          6.99400       -1.32600       -1.87800
H          7.00300        0.36300       -2.37900
H          6.90200       -0.35300       -4.82900
H          8.24700       -2.72700       -3.41000
H          8.32600       -2.28100       -5.20900
