37
157688-46-5.pdb
C          4.33500        1.01800       -1.08000
C          3.12400        0.09900       -0.85900
C          2.28700        0.50500        0.36100
C          2.22500        0.21100       -2.10400
O          3.53300       -1.29100       -0.77100
C          4.35000       -1.67900        0.25000
O          4.75800       -0.91300        1.11600
N          4.70000       -3.01500        0.21200
C          5.48000       -3.55700        1.31700
C          6.53300       -4.54900        0.83200
C          5.93100       -5.65600       -0.04800
C          5.12000       -5.00600       -1.18500
C          4.08600       -3.99700       -0.68300
C          5.10600       -6.64100        0.79600
C          4.54100       -7.85200        0.04800
O          5.22000       -8.26500       -0.93100
O          3.45200       -8.29000        0.51600
H          4.02900        2.06100       -1.20000
H          4.89000        0.71300       -1.97600
H          5.05000        0.98200       -0.25300
H          1.90100        1.52500        0.26000
H          2.85400        0.46300        1.29400
H          1.43800       -0.17700        0.48600
H          1.89600        1.24600       -2.26200
H          1.33600       -0.42000       -2.00800
H          2.75300       -0.12200       -3.00400
H          4.77900       -4.02800        2.01700
H          5.98100       -2.75400        1.86800
H          7.06000       -4.98000        1.69100
H          7.28200       -4.00300        0.24300
H          6.76400       -6.21000       -0.50000
H          4.62700       -5.76400       -1.80300
H          5.82200       -4.47900       -1.84600
H          3.29100       -4.50000       -0.12000
H          3.61500       -3.50600       -1.53700
H          4.27700       -6.12600        1.29300
H          5.74200       -7.04500        1.59500
