24
15799-79-8.pdb
C          1.21400       -0.38600        0.04200
O          2.50900        0.15300       -0.19900
C          3.14500        0.73600        0.86400
C          2.64300        0.83300        2.15500
C          3.39900        1.47200        3.13400
C          4.65100        2.01600        2.81500
C          5.21000        1.93300        1.52900
C          4.40900        1.27600        0.56800
N          6.43100        2.53400        1.21500
C          6.96900        2.44000       -0.14300
C          7.47000        2.66200        2.23900
H          0.85900       -0.83600       -0.89000
H          0.50500        0.40000        0.32400
H          1.24800       -1.17700        0.79900
H          1.67200        0.43900        2.43200
H          3.01100        1.57000        4.14100
H          5.15700        2.54700        3.61200
H          4.74900        1.16800       -0.45600
H          6.21300        2.59900       -0.91800
H          7.45800        1.47200       -0.30000
H          7.71800        3.22500       -0.30100
H          7.10100        2.82700        3.25300
H          8.10400        3.52600        2.00900
H          8.10600        1.77000        2.24800
