18
15804-19-0.pdb
O         -2.72500       -1.43400        0.00900
C         -1.68600       -0.78800        0.01500
N         -0.45200       -1.40100        0.01700
C          0.75400       -0.69700        0.01100
C          1.96300       -1.39100       -0.00300
C          3.16400       -0.68000       -0.02400
C          3.15500        0.71700       -0.02600
C          1.94400        1.41200       -0.00400
C          0.74500        0.70200        0.01300
N         -0.47000        1.39100        0.02600
C         -1.69600        0.76100        0.02100
O         -2.74300        1.39400        0.01800
H         -0.46200       -2.41200        0.01200
H          1.98600       -2.47700       -0.00200
H          4.11100       -1.21500       -0.04000
H          4.09500        1.26500       -0.04600
H          1.95200        2.49800       -0.00500
H         -0.49300        2.40100        0.03000
