32
15869-95-1.pdb
C          1.02900       -0.11500        0.10400
C          2.55000       -0.08500        0.03100
C          3.00400        0.36700       -1.35600
C          4.53400        0.41800       -1.50100
C          5.04700        0.87500       -2.90700
C          4.53700       -0.09300       -3.99300
C          4.53400        2.29500       -3.21300
C          6.61000        0.86700       -2.88000
C          7.29700        1.29300       -4.18800
C          8.81400        1.25700       -4.07700
H          0.69600       -0.43900        1.09500
H          0.61500       -0.80600       -0.63700
H          0.60900        0.87900       -0.08800
H          2.94300       -1.08500        0.25000
H          2.93700        0.59700        0.79600
H          2.57700        1.35600       -1.54800
H          2.58100       -0.32200       -2.09400
H          4.94000       -0.57700       -1.27700
H          4.93600        1.09400       -0.73500
H          3.44500       -0.10900       -4.04500
H          4.88200       -1.11400       -3.79900
H          4.87900        0.19700       -4.99200
H          3.44100        2.33900       -3.24600
H          4.87800        2.64700       -4.19200
H          4.87900        3.00900       -2.45800
H          6.95700       -0.14100       -2.61800
H          6.95600        1.52900       -2.07400
H          7.00300        2.31000       -4.46200
H          7.00400        0.63200       -5.00900
H          9.16900        1.93800       -3.29700
H          9.26500        1.56400       -5.02600
H          9.16800        0.24700       -3.84500
