27
15862-72-3.pdb
C          2.62900        1.25300       -1.15600
C          4.11700        1.11700       -0.89000
O          4.62100       -0.06000       -1.54700
C          4.45600       -1.22700       -0.88300
O          3.99100       -1.37500        0.24100
C          4.92100       -2.42200       -1.71600
C          4.10100       -2.54000       -3.00100
C          4.39700       -3.82600       -3.76600
C          4.21700       -5.05500       -2.88000
C          5.07100       -4.95900       -1.62800
N          4.74100       -3.70400       -0.90900
H          2.23100        2.15900       -0.69200
H          2.07900        0.39000       -0.76800
H          2.43500        1.29200       -2.23300
H          4.33600        1.09100        0.18300
H          4.65000        1.97500       -1.31300
H          5.99600       -2.33400       -1.90900
H          4.30200       -1.68100       -3.65400
H          3.02900       -2.49700       -2.76500
H          5.42600       -3.79700       -4.14600
H          3.73600       -3.89800       -4.63700
H          4.48200       -5.95800       -3.44100
H          3.16000       -5.15100       -2.60000
H          6.14100       -4.93200       -1.86000
H          4.87100       -5.78600       -0.94000
H          5.30300       -3.62000       -0.04900
H          3.77000       -3.72300       -0.55600
