30
1587-20-8.pdb
C          1.24800        0.51400        0.54500
O          2.63100        0.26700        0.29100
C          3.01500       -1.03700        0.24500
O          2.27800       -2.00500        0.37300
C          4.50500       -1.11400        0.06000
C          5.04300       -2.55000       -0.09900
O          4.68500       -3.30700        1.07800
C          4.52100       -3.30700       -1.33800
C          4.95400       -2.67600       -2.63800
O          5.61200       -1.64900       -2.73000
O          4.47100       -3.39400       -3.68800
C          4.81100       -2.88700       -4.98300
C          6.59200       -2.54700       -0.14700
O          7.26800       -3.40400       -0.70800
O          7.11300       -1.49000        0.54000
C          8.53500       -1.39300        0.49800
H          1.17800        1.40300        1.18000
H          0.75000       -0.31200        1.06100
H          0.74800        0.72400       -0.40400
H          4.92300       -0.65900        0.96600
H          4.78200       -0.48700       -0.79200
H          3.70900       -3.38300        1.09500
H          3.42900       -3.37300       -1.32800
H          4.89400       -4.34000       -1.32100
H          3.98000       -3.10300       -5.66000
H          5.70300       -3.40500       -5.34500
H          4.97700       -1.80500       -4.98900
H          8.83100       -0.53500        1.10800
H          8.87100       -1.21800       -0.52900
H          8.99900       -2.29200        0.91400
