31
15872-41-0.pdb
C          1.01100       -0.10100        0.25000
C          2.52800       -0.07800        0.15200
C          3.06400        1.34500        0.29400
C          4.58600        1.39200        0.19700
C          5.10100        2.82200        0.34100
O          6.52600        2.79800        0.23700
C          7.16000        4.00500        0.35300
C          6.69200        5.09100        1.09000
C          7.45700        6.26100        1.18100
C          8.70100        6.36600        0.53800
C          9.18600        5.25700       -0.16800
C          8.40700        4.09500       -0.26800
C          9.43500        7.65700        0.67400
O         10.21400        8.01200       -0.36600
O          9.29000        8.38800        1.65100
H          0.63700       -1.12400        0.14400
H          0.55900        0.51000       -0.53800
H          0.67600        0.28600        1.21800
H          2.83400       -0.49900       -0.81200
H          2.95100       -0.71800        0.93600
H          2.74500        1.76100        1.25800
H          2.63000        1.97800       -0.48900
H          4.92500        0.96900       -0.75700
H          5.03500        0.76500        0.98000
H          4.77700        3.20600        1.31400
H          4.69300        3.45100       -0.46100
H          5.75400        5.05200        1.63200
H          7.07400        7.09600        1.76800
H         10.16800        5.24900       -0.63100
H          8.77900        3.24400       -0.83900
H         10.23200        7.41600       -1.13200
