31
158851-30-0.pdb
C          2.07500        1.35200        0.01400
C          2.44900       -0.11600       -0.19700
C          1.22000       -1.01500       -0.08700
C          1.45100       -2.50700       -0.18500
O          2.69600       -2.92300       -0.47500
O          0.53600       -3.30600       -0.03100
N          3.13500       -0.29300       -1.47500
C          4.48300       -0.10000       -1.58600
O          5.20800        0.07900       -0.61900
O          4.87400       -0.19600       -2.87600
C          6.28900       -0.07900       -3.19100
C          7.10900       -1.19500       -2.52700
C          6.40500       -0.25100       -4.71500
C          6.81100        1.31800       -2.82800
H          1.60000        1.49600        0.99100
H          1.38000        1.70100       -0.75800
H          2.96200        1.99400       -0.02500
H          3.15100       -0.39100        0.60200
H          0.49100       -0.74600       -0.86000
H          0.75900       -0.84600        0.89500
H          3.34700       -2.21400       -0.64900
H          2.62200       -0.25300       -2.35000
H          6.73700       -2.18100       -2.83000
H          7.05200       -1.16800       -1.43600
H          8.16800       -1.12600       -2.79900
H          6.01900       -1.22600       -5.03300
H          7.44700       -0.17000       -5.04800
H          5.81500        0.50600       -5.24400
H          6.76600        1.51100       -1.75300
H          6.20100        2.09200       -3.30900
H          7.85200        1.44900       -3.14200
