19
1588-83-6.pdb
N          2.35200        0.07900       -0.22100
C          0.96800       -0.02700       -0.01600
C          0.22700        1.16300       -0.03200
C         -1.17100        1.15500        0.00100
C         -1.87700       -0.05200        0.00800
C         -1.16700       -1.25800        0.00500
C          0.24800       -1.24200       -0.02900
N          0.94700       -2.54000       -0.02700
O          2.18400       -2.55400        0.06400
O          0.24600       -3.56200       -0.09700
C         -3.36100        0.02500        0.06900
O         -4.01200       -1.00700       -0.50500
O         -3.94000        0.97300        0.56900
H          2.78400        0.91700        0.15200
H          2.88000       -0.76600        0.01700
H          0.73800        2.12300       -0.07500
H         -1.70900        2.10300        0.00800
H         -1.70000       -2.20300        0.05500
H         -3.47900       -1.64900       -1.00600
