41
159-66-0.pdb
C          3.21400       -1.93600       -2.10000
C          1.91300       -2.34700       -2.43700
C          0.80200       -1.77900       -1.81200
C          1.02000       -0.80900       -0.84100
C          2.32900       -0.40800       -0.48600
C          3.42900       -0.96000       -1.12100
C          2.25300        0.55600        0.59500
C          3.25600        1.20700        1.29400
C          2.89500        2.05100        2.35000
C          1.54700        2.23900        2.69700
C          0.53500        1.59900        1.98300
C          0.89800        0.76500        0.93400
C         -0.00300       -0.04300       -0.00300
C         -1.00400       -0.93400        0.73300
C         -0.75600       -1.96900        1.62400
C         -1.84600       -2.63400        2.18200
C         -3.16000       -2.25700        1.85300
C         -3.40600       -1.21300        0.95500
C         -2.32400       -0.55500        0.39500
C         -2.27800        0.53600       -0.55900
C         -3.30100        1.24000       -1.17400
C         -2.96600        2.25800       -2.07400
C         -1.62300        2.56100       -2.35400
C         -0.59000        1.85600       -1.73300
C         -0.92800        0.85000       -0.83600
H          4.06500       -2.39200       -2.60200
H          1.77100       -3.11900       -3.19000
H         -0.20300       -2.09700       -2.07000
H          4.43900       -0.66100       -0.86300
H          4.30200        1.06500        1.04300
H          3.66800        2.56500        2.91700
H          1.29000        2.88800        3.53000
H         -0.50900        1.74400        2.24800
H          0.26100       -2.25800        1.87700
H         -1.68000       -3.45000        2.88100
H         -3.99700       -2.78700        2.30300
H         -4.42500       -0.93400        0.70900
H         -4.34200        1.01800       -0.96700
H         -3.75500        2.82300       -2.56500
H         -1.38600        3.35400       -3.05900
H          0.44800        2.09500       -1.94300
