24
1591-30-6.pdb
N         -3.05900        0.01900       -0.06700
C         -1.89800        0.01100       -0.06100
C         -0.46700        0.00100       -0.04000
C          0.22600       -1.20900       -0.02500
C          1.62400       -1.21600        0.03800
C          2.36500       -0.02000        0.08100
C          1.64000        1.18600        0.03500
C          0.24300        1.20100       -0.01800
C          3.84300       -0.02500        0.17300
C          4.61400       -1.06100       -0.38700
C          6.01000       -1.05200       -0.32000
C          6.67300        0.00200        0.30900
C          5.93400        1.03300        0.88800
C          4.53700        1.01200        0.82500
C          8.10300        0.03300        0.34900
N          9.26400        0.06100        0.37600
H         -0.31000       -2.15600       -0.04900
H          2.12500       -2.18100        0.07200
H          2.15700        2.14400        0.03500
H         -0.27900        2.15600       -0.03800
H          4.13700       -1.89100       -0.90600
H          6.57100       -1.86900       -0.77000
H          6.43200        1.86000        1.39100
H          3.99700        1.82600        1.30400
