22
1592-38-7.pdb
O          3.49300        0.54900       -0.57000
C          2.36400       -0.03700        0.06000
C          2.79200       -0.72100        1.32800
C          2.58700       -2.09300        1.50500
C          2.96800       -2.72000        2.69400
C          3.56300       -1.99000        3.73300
C          3.94900       -2.60800        4.93300
C          4.54100       -1.86800        5.95800
C          4.75400       -0.50200        5.79600
C          4.37700        0.12600        4.60800
C          3.77900       -0.60300        3.56700
C          3.39100        0.01300        2.36400
H          3.17500        0.95300       -1.39300
H          1.90700       -0.74500       -0.63900
H          1.63200        0.74600        0.28700
H          2.13100       -2.68900        0.71700
H          2.79800       -3.78900        2.80200
H          3.79200       -3.67400        5.07700
H          4.83600       -2.36000        6.88100
H          5.21700        0.07500        6.59200
H          4.55400        1.19400        4.49800
H          3.56200        1.07800        2.22200
