25
1592-12-7.pdb
C          0.86800       -0.08500       -1.57100
C          2.28400        0.39200       -1.64700
O          2.61900        1.49500       -2.05700
O          3.11900       -0.57200       -1.17100
C          4.51600       -0.24300       -1.21500
C          5.08400       -0.55200       -2.57800
C          5.61500        0.47100       -3.37100
C          6.11700        0.19200       -4.64800
C          6.10000       -1.11300       -5.15200
C          6.57000       -1.44400       -6.50600
C          7.54900       -0.80500       -7.15600
C          5.55800       -2.13200       -4.35800
C          5.05800       -1.85600       -3.08200
H          0.20800        0.67000       -2.00700
H          0.58600       -0.23500       -0.52600
H          0.75300       -1.01200       -2.13800
H          5.02500       -0.86400       -0.46800
H          4.68600        0.79900       -0.91700
H          5.61900        1.49900       -3.01500
H          6.49400        1.01500       -5.24700
H          6.07400       -2.28200       -6.99000
H          8.09900        0.02300       -6.72000
H          7.83700       -1.11600       -8.15500
H          5.51500       -3.15400       -4.73000
H          4.63600       -2.66500       -2.48900
