18
1594-56-5.pdb
O          1.34800       -0.52900       -0.23100
N          2.41400        0.05500        0.00300
O          2.84200        1.03000       -0.62900
C          3.23500       -0.44400        1.11600
C          2.78300       -1.52500        1.88500
C          3.55100       -1.98800        2.96200
C          4.79000       -1.40000        3.27900
S          5.66500       -1.95200        4.74200
C          5.93600       -3.55200        4.26700
N          6.08300       -4.65400        3.93900
C          5.22000       -0.33000        2.47400
C          4.45900        0.16500        1.40300
N          6.49800        0.30900        2.71800
O          7.51000       -0.38600        2.57100
O          6.47400        1.51000        3.01300
H          1.83100       -2.01100        1.66900
H          3.15700       -2.81300        3.55700
H          4.82200        1.00800        0.81600
