20
15988-11-1.pdb
O          1.38300        0.08200       -1.07800
C          2.49000        0.01500       -0.56500
N          3.30600        1.14100       -0.39200
N          4.32800        0.79100        0.48000
C          4.29700       -0.60200        0.62000
O          5.23500       -1.22700        1.09900
N          3.13400       -1.06400        0.02400
C          2.71400       -2.41500       -0.02200
C          1.82500       -2.86500       -1.01000
C          1.46300       -4.21400       -1.09300
C          1.95800       -5.12900       -0.17000
C          2.81400       -4.69700        0.83800
C          3.19500       -3.35300        0.90400
H          2.85600        2.04800       -0.34500
H          5.24600        1.21700        0.40600
H          1.42700       -2.19000       -1.76400
H          0.80100       -4.54600       -1.88900
H          1.67700       -6.17700       -0.23500
H          3.19300       -5.40200        1.57200
H          3.85900       -3.05900        1.71300
