28
1599-47-9.pdb
C          0.86000        0.09800       -0.42100
C          2.37700        0.09400       -0.33800
C          2.95400       -1.28200       -0.66200
C          4.48400       -1.28600       -0.56500
C          5.03400       -2.68700       -0.83700
C          6.56200       -2.78200       -0.72000
O          6.98000       -2.42100        0.59400
C          8.38900       -2.24300        0.68200
O          7.01600       -4.09200       -1.08200
C          6.62200       -5.11400       -0.17300
H          0.46600        1.09300       -0.19300
H          0.42600       -0.61100        0.29700
H          0.52100       -0.18200       -1.42500
H          2.68100        0.39600        0.67000
H          2.77500        0.83900       -1.03500
H          2.64800       -1.58600       -1.67100
H          2.54100       -2.02300        0.03400
H          4.78400       -0.95700        0.43600
H          4.90300       -0.57400       -1.28500
H          4.72800       -3.02500       -1.83600
H          4.56400       -3.37100       -0.12100
H          7.00500       -2.08000       -1.44000
H          8.69900       -2.50000        1.69800
H          8.63800       -1.19500        0.49500
H          8.94200       -2.88300       -0.01500
H          7.12000       -6.04000       -0.46500
H          5.54200       -5.28800       -0.22200
H          6.91800       -4.87800        0.85300
