23
1603-79-8.pdb
C          4.77900       -1.83900       -1.63400
C          3.65300       -0.98500       -1.08000
O          3.76000        0.30900       -1.68500
C          4.48600        1.21100       -0.99200
O          4.88300        1.13200        0.15500
C          4.93900        2.30500       -1.94500
O          4.10200        3.03900       -2.45900
C          6.39100        2.42000       -2.25800
C          7.35400        1.58200       -1.67500
C          8.70400        1.73000       -2.00000
C          9.10200        2.70700       -2.90900
C          8.15200        3.53800       -3.49900
C          6.80100        3.39700       -3.17600
H          4.75400       -2.85200       -1.21800
H          5.75100       -1.38900       -1.41300
H          4.70500       -1.90000       -2.72600
H          3.68900       -0.93900        0.01400
H          2.68300       -1.40800       -1.36000
H          7.08800        0.81200       -0.95600
H          9.44700        1.08300       -1.53700
H         10.15500        2.82200       -3.15600
H          8.46200        4.30100       -4.20900
H          6.06900        4.05300       -3.64300
