21
1604-28-0.pdb
C          1.06900       -0.02500        0.14200
C          2.57300       -0.00200        0.09200
C          3.19700        0.56900       -1.15300
C          3.28600       -0.48000        1.13200
C          4.73200       -0.51100        1.20100
C          5.41800       -0.99200        2.24900
C          6.90800       -0.97900        2.22200
C          7.63000       -1.53100        3.42300
O          7.53200       -0.53700        1.25900
H          0.62200        0.39200       -0.76600
H          0.70200        0.56800        0.98600
H          0.70200       -1.05200        0.24200
H          2.44400        0.90000       -1.87400
H          3.81500       -0.18300       -1.65500
H          3.81500        1.44000       -0.91100
H          2.75100       -0.87500        1.99400
H          5.28300       -0.12000        0.34900
H          4.93100       -1.39500        3.12800
H          6.93200       -1.88200        4.18700
H          8.25400       -0.74400        3.85600
H          8.25400       -2.37200        3.10900
