25
1604-02-0.pdb
C          0.78600       -1.97900       -1.64000
C          2.30100       -2.00100       -1.76900
C          2.97900       -1.29500       -0.58900
C          4.51000       -1.29800       -0.68500
O          4.91700       -0.62700       -1.87800
C          5.18500       -0.63400        0.51700
C          6.63100       -1.12300        0.45100
C          6.59100       -2.46400       -0.28100
C          5.13200       -2.69500       -0.67100
H          0.32800       -2.46900       -2.50400
H          0.41000       -0.95300       -1.59200
H          0.46200       -2.50900       -0.73900
H          2.58400       -1.51700       -2.71000
H          2.63200       -3.04400       -1.82700
H          2.66200       -1.76800        0.34900
H          2.62500       -0.25600       -0.56000
H          4.57900        0.28300       -1.83700
H          4.73000       -0.96700        1.45800
H          5.14400        0.46000        0.48000
H          7.06800       -1.21600        1.45100
H          7.24900       -0.41300       -0.11100
H          6.96500       -3.28000        0.34600
H          7.22500       -2.42100       -1.17400
H          4.65000       -3.32900        0.08300
H          5.07000       -3.20000       -1.64100
