22
16051-77-7.pdb
O          2.84300       -1.36900       -0.22000
C          2.47900       -0.01600        0.04300
C          3.27100        0.55900        1.21100
O          3.76000        1.86000        0.84700
C          3.31400        2.16600       -0.47300
C          2.09500        3.07800       -0.51400
C          1.38500        2.58200       -1.76800
O          1.70300        1.19100       -1.93500
C          2.84600        0.88300       -1.12400
O          1.22700        2.85500        0.59900
N          1.54200        3.65700        1.72600
O          2.40600        4.52400        1.58800
O          0.84900        3.38300        2.70400
H          2.53300       -1.91000        0.52700
H          1.40100        0.00400        0.24100
H          4.11800       -0.06800        1.50200
H          2.62600        0.67700        2.08800
H          4.13600        2.61300       -1.04300
H          2.33700        4.13800       -0.64200
H          1.74600        3.10700       -2.65900
H          0.29700        2.68200       -1.71000
H          3.61800        0.43100       -1.75700
