21
1609-47-8.pdb
C          2.62100        0.61300       -2.22700
C          2.63700        0.47000       -0.71600
O          3.21900        1.65900       -0.17000
C          4.57800        1.64100       -0.08700
O          5.26000        0.63700       -0.21000
O          4.97800        2.91300        0.07400
C          6.30100        3.10900        0.20200
O          7.19000        2.27300        0.28600
O          6.50000        4.44900        0.30800
C          7.78300        4.82500        0.82600
C          7.69300        4.81800        2.34200
H          2.19400       -0.27200       -2.70400
H          3.63300        0.77200       -2.61500
H          2.03500        1.49300       -2.51500
H          3.17100       -0.43400       -0.40100
H          1.61600        0.39300       -0.33100
H          8.00600        5.83400        0.46400
H          8.58100        4.16800        0.46500
H          6.92500        5.52300        2.67600
H          8.64800        5.08700        2.79600
H          7.39100        3.83100        2.71000
