37
161024-80-2.pdb
C          7.40800        0.33300        2.19000
C          8.49000       -0.73900        2.00400
C          9.80200       -0.15700        1.45600
C          8.79200       -1.35100        3.38300
O          7.99000       -1.82100        1.18100
C          7.63900       -1.57500       -0.10900
O          7.80500       -0.51600       -0.69300
N          7.06100       -2.67900       -0.65800
C          6.32300       -2.61800       -1.91000
C          4.84300       -2.31800       -1.68600
C          4.07300       -3.38100       -0.90900
O          4.72000       -3.98100       -0.00200
O          2.85700       -3.49300       -1.23400
C          6.57800       -3.82800       -2.79900
C          6.59700       -3.67600       -4.19600
C          6.82900       -4.77000       -5.03400
C          7.04200       -6.03400       -4.48800
C          7.01400       -6.20500       -3.10700
C          6.77700       -5.11200       -2.27100
H          7.74400        1.12900        2.86300
H          6.49800       -0.11300        2.60700
H          7.11800        0.79800        1.24400
H         10.18600        0.63700        2.10700
H          9.69300        0.27000        0.45700
H         10.56800       -0.93700        1.37700
H          9.16300       -0.59400        4.08400
H          9.54500       -2.14500        3.30600
H          7.89700       -1.81100        3.81500
H          6.67700       -3.34600        0.01200
H          6.73100       -1.75600       -2.45700
H          4.74000       -1.38600       -1.11300
H          4.34900       -2.15000       -2.65100
H          6.42300       -2.69700       -4.63700
H          6.83300       -4.63500       -6.11100
H          7.21400       -6.88800       -5.13600
H          7.15800       -7.18800       -2.67000
H          6.72800       -5.27300       -1.19500
