42
1611-03-6.pdb
C          1.56000       -0.47400        1.18800
C          2.48300        0.10100        0.07900
C          1.66300        1.21800       -0.60600
C          3.69600        0.72200        0.80500
C          2.94700       -0.96200       -0.94600
C          2.56200       -2.30800       -0.79400
C          2.90100       -3.30200       -1.72000
C          2.48600       -4.72900       -1.43200
C          2.13900       -5.72900       -2.53100
O          2.15800       -5.33700       -3.73100
O          1.85600       -6.88700       -2.09300
C          3.69600       -2.94700       -2.81100
C          4.14600       -1.62700       -3.03400
C          3.73800       -0.65800       -2.08200
O          4.07400        0.65600       -2.26200
C          4.96900       -1.33100       -4.31600
C          3.98100       -0.94000       -5.43500
C          6.02200       -0.20700       -4.15900
C          5.78100       -2.55800       -4.82000
H          1.23100        0.31100        1.88000
H          2.07400       -1.23200        1.79100
H          0.65500       -0.92400        0.76400
H          1.26000        1.91900        0.13500
H          0.81500        0.80100       -1.16200
H          2.25200        1.81900       -1.30300
H          3.37000        1.45200        1.55600
H          4.37200        1.24900        0.12600
H          4.28200       -0.04600        1.32300
H          1.96500       -2.62500        0.05500
H          1.58800       -4.69800       -0.79700
H          3.28500       -5.17500       -0.82400
H          3.93900       -3.74100       -3.51300
H          3.76100        0.87100       -3.15400
H          3.43300       -0.02400       -5.19200
H          3.23900       -1.72900       -5.60500
H          4.50300       -0.77100       -6.38500
H          5.58100        0.79000       -4.08600
H          6.68300       -0.16000       -5.03400
H          6.65200       -0.37300       -3.27900
H          5.14300       -3.38900       -5.13800
H          6.46700       -2.92400       -4.04800
H          6.38300       -2.30000       -5.70100
