20
16133-49-6.pdb
C          1.23200       -0.51000       -0.50900
O          2.38500        0.07900        0.07900
C          3.05100       -0.66200        1.01600
C          2.66300       -1.91000        1.49400
C          3.45100       -2.56800        2.44000
C          4.63400       -1.97400        2.92000
C          5.02300       -0.69200        2.48200
N          6.26200       -0.09600        2.77600
C          4.22700       -0.07500        1.50100
N          5.41200       -2.71500        3.92700
O          5.05400       -3.87300        4.19300
O          6.36300       -2.14200        4.48300
H          0.83700        0.19200       -1.24900
H          0.45100       -0.68100        0.23900
H          1.48700       -1.43800       -1.03300
H          1.76100       -2.40400        1.14600
H          3.13300       -3.54900        2.78900
H          6.69500       -0.44100        3.63700
H          6.27200        0.91900        2.72100
H          4.53100        0.88600        1.08800
