16
1614-12-6.pdb
N          0.93200       -0.08500        0.25500
N          2.33900       -0.08200        0.17700
N          3.07100        1.03900        0.08700
N          4.35000        0.68700        0.01900
C          4.40900       -0.67900        0.04200
C          5.50900       -1.54700       -0.01300
C          5.27100       -2.92700        0.00700
C          3.96900       -3.43000        0.08400
C          2.86200       -2.57700        0.14900
C          3.12700       -1.20300        0.12700
H          0.60400        0.85700        0.05500
H          0.54000       -0.67300       -0.47400
H          6.51800       -1.15200       -0.07200
H          6.11300       -3.61500       -0.03200
H          3.81300       -4.50800        0.09700
H          1.85100       -2.96400        0.21600
