19
16156-59-5.pdb
C          1.10200       -0.17400       -0.43500
S          2.75400       -0.79400       -0.61600
O          3.26700       -1.08500        0.70800
O          2.74100       -1.79300       -1.66600
O          3.43100        0.58100       -1.17500
C          4.75900        0.65200       -1.51800
C          5.67800       -0.39100       -1.39400
C          7.00800       -0.20500       -1.77800
C          7.42700        1.02300       -2.28600
C          6.51600        2.06800       -2.41100
C          5.18500        1.88400       -2.02700
H          0.47700       -0.98800       -0.06300
H          0.73900        0.15900       -1.40900
H          1.10800        0.64900        0.28300
H          5.39700       -1.36400       -1.00200
H          7.71700       -1.02400       -1.67900
H          8.46300        1.16100       -2.58400
H          6.84100        3.02700       -2.80600
H          4.48200        2.70700       -2.12800
