34
161660-94-2.pdb
C          6.18300       -1.76300        1.12900
C          6.57900       -0.37700        1.65900
C          5.45700        0.28000        2.47400
C          7.79200       -0.56500        2.58800
O          7.01400        0.48600        0.58000
C          6.15300        0.78300       -0.42800
O          4.97400        0.44300       -0.47200
N          6.77600        1.49400       -1.40600
C          6.21500        1.59600       -2.73900
C          6.50700        2.94000       -3.39500
C          7.87300        2.79300       -4.06500
C          8.14600        1.29000       -4.18200
C          6.86700        0.59900       -3.69900
C          9.36900        0.91100       -3.32700
O          9.27900        1.16700       -2.09100
O         10.32300        0.39300       -3.96900
H          5.91300       -2.44000        1.94500
H          7.01300       -2.20800        0.56700
H          5.33400       -1.72200        0.44200
H          5.15400       -0.35100        3.31600
H          4.56500        0.47900        1.87500
H          5.78500        1.24900        2.86800
H          7.55200       -1.22800        3.42800
H          8.13500        0.39300        2.99500
H          8.64200       -0.99600        2.04600
H          7.80800        1.47600       -1.35300
H          5.13300        1.42500       -2.68500
H          6.48200        3.77800       -2.69100
H          5.75400        3.13700       -4.16900
H          8.64000        3.31900       -3.48700
H          7.85000        3.25900       -5.05700
H          8.35000        1.01300       -5.22300
H          7.05100       -0.37800       -3.23800
H          6.20400        0.44400       -4.56000
