28
16182-15-3.pdb
C          2.14000        1.87800        0.03700
C          1.02600        0.87200        0.02500
C          1.29000       -0.49300        0.01200
C          0.25400       -1.44900       -0.00200
C          0.68100       -2.89400       -0.00200
C         -1.09700       -1.00900        0.00300
C         -1.37800        0.38200        0.04300
C         -2.73800        1.03200        0.07700
C         -0.30000        1.29700        0.04200
S         -2.43700       -2.21300       -0.06600
O         -3.58000       -1.63600       -0.74300
O         -1.95900       -3.51200       -0.47600
N         -2.85500       -2.34600        1.61300
N         -3.95000       -3.24700        1.76300
H          3.11800        1.39500       -0.05000
H          2.12500        2.44400        0.97500
H          2.03500        2.57100       -0.80400
H          2.32900       -0.82700        0.01000
H          1.77300       -2.98900        0.01900
H          0.35800       -3.39800       -0.91600
H          0.30300       -3.40600        0.88800
H         -3.56800        0.35800        0.27000
H         -2.92000        1.55700       -0.86400
H         -2.77000        1.76300        0.89500
H         -0.50900        2.36700        0.05500
H         -3.04000       -1.43000        2.03600
H         -3.66100       -4.14400        1.34800
H         -4.71700       -2.92400        1.15800
