38
161948-70-5.pdb
C          3.84900        0.02000        1.74100
C          2.86600        0.37100        0.61700
C          2.56500       -0.82800       -0.29700
C          1.53800        0.80000        1.26500
O          3.34000        1.52200       -0.13700
C          4.47400        1.39700       -0.87900
O          5.13100        0.36200       -0.94700
N          4.81500        2.53900       -1.57700
C          5.98100        2.51700       -2.45400
C          7.10400        3.36400       -1.86700
C          6.61500        4.79900       -1.62200
C          5.37000        4.76500       -0.71800
C          4.27700        3.86800       -1.30500
O          6.35100        5.36400       -2.91300
C          5.98500        6.76300       -2.91100
C          7.03700        7.68800       -2.25700
O          7.88500        8.20000       -3.04200
O          6.89700        7.85500       -1.00800
H          3.47900       -0.81000        2.35100
H          4.00700        0.88600        2.39500
H          4.83600       -0.26000        1.36200
H          2.12400       -1.65700        0.26600
H          3.45600       -1.21900       -0.79400
H          1.86900       -0.53900       -1.09400
H          1.12000       -0.00300        1.88400
H          0.79500        1.06400        0.50400
H          1.67200        1.68600        1.89400
H          5.66700        2.89700       -3.43300
H          6.33500        1.49200       -2.61200
H          7.95200        3.36200       -2.56100
H          7.44300        2.92400       -0.92000
H          7.42900        5.34700       -1.13800
H          4.96600        5.76800       -0.55800
H          5.66200        4.37900        0.26800
H          3.90800        4.27900       -2.25200
H          3.43100        3.82000       -0.61300
H          5.00700        6.88800       -2.43600
H          5.85800        7.05400       -3.96000
