29
1619-62-1.pdb
C          4.05300       -2.09600       -0.44200
C          5.02900       -0.98200       -0.12500
O          5.04200        0.01900       -1.15500
C          4.48400        1.21600       -0.81600
O          3.70500        1.37900        0.11400
C          4.98700        2.33600       -1.72000
C          4.44500        2.12400       -3.13800
C          4.50600        3.69300       -1.18400
C          6.50300        2.39300       -1.76100
O          7.13900        2.85900       -2.70400
O          7.07700        1.92900       -0.61600
C          8.51000        1.93400       -0.59100
C          9.06200        0.72000       -1.32000
H          4.09100       -2.86200        0.33900
H          4.29500       -2.56600       -1.40000
H          3.02900       -1.71700       -0.51200
H          6.04500       -1.39000       -0.08200
H          4.81900       -0.55600        0.86300
H          3.35100        2.08600       -3.14800
H          4.81600        1.18900       -3.57400
H          4.75700        2.93600       -3.81000
H          3.41200        3.74900       -1.16400
H          4.87400        4.52200       -1.80200
H          4.86400        3.86600       -0.16200
H          8.81300        1.89800        0.46100
H          8.91100        2.87100       -1.00900
H          8.70000       -0.20200       -0.85500
H         10.15500        0.72000       -1.30300
H          8.73000        0.70000       -2.36400
