23
16208-17-6.pdb
C          1.25700       -0.54300        0.23900
O          2.51800        0.04100       -0.07800
C          3.13200        0.75700        0.90700
C          2.63600        0.99100        2.18700
C          3.36300        1.75800        3.10400
C          4.59600        2.30100        2.73500
C          5.10200        2.05900        1.45500
C          4.37200        1.29800        0.54500
C          5.38900        3.18600        3.64000
O          6.60100        3.32400        3.44600
C          4.65800        3.95700        4.74100
O          4.53100        3.17000        5.90300
O          5.33700        5.15100        5.07700
H          0.91400       -1.09700       -0.63800
H          0.51500        0.23000        0.45700
H          1.34700       -1.25000        1.06800
H          1.68100        0.58200        2.51100
H          2.95200        1.90000        4.09500
H          6.06500        2.47400        1.15300
H          4.77000        1.11400       -0.45000
H          3.66600        4.25400        4.38300
H          3.58500        3.02400        6.05600
H          6.28200        4.93200        4.96300
