15
1620-77-5.pdb
C          1.09900        0.03300        0.00900
C          2.59100        0.04800       -0.09300
C          3.31200        1.24100       -0.16200
C          4.70100        1.20200       -0.26800
C          5.32600       -0.03800       -0.29900
N          4.65700       -1.21300       -0.22300
C          3.31000       -1.14200       -0.12100
C          6.75500       -0.13300       -0.42600
N          7.91200       -0.16300       -0.53500
H          0.68400        1.04600       -0.03600
H          0.78800       -0.41700        0.95700
H          0.66900       -0.53900       -0.81900
H          2.80200        2.20100       -0.13800
H          5.27500        2.12100       -0.32800
H          2.80700       -2.10500       -0.06200
