39
1620-98-0.pdb
C          3.60800       -1.09500       -0.30800
C          2.55500       -0.02400        0.09100
C          1.33600       -0.24700       -0.83300
C          2.17900       -0.33600        1.55300
C          3.04400        1.43800       -0.05300
C          4.33100        1.70300       -0.55500
C          4.76600        3.01500       -0.72800
C          6.14100        3.30000       -1.18600
O          6.95300        2.40700       -1.42500
C          3.91800        4.08400       -0.46200
C          2.61900        3.90500        0.04900
C          2.22800        2.56300        0.28100
O          1.03200        2.32800        0.89600
C          1.70400        5.13600        0.30300
C          2.44500        6.46400       -0.01700
C          0.44900        5.08800       -0.59900
C          1.22400        5.26800        1.76500
H          3.26800       -2.10300       -0.03900
H          4.56400       -0.94500        0.20800
H          3.79700       -1.10200       -1.38900
H          0.99100       -1.28600       -0.79200
H          1.58600       -0.02200       -1.87900
H          0.48100        0.38100       -0.56600
H          1.90900       -1.39200        1.67300
H          1.32200        0.23900        1.90800
H          3.02200       -0.12800        2.22200
H          5.02300        0.91000       -0.81000
H          6.41600        4.35900       -1.29600
H          4.31600        5.07600       -0.65300
H          0.34200        2.45000        0.23000
H          2.72200        6.52100       -1.07800
H          3.35900        6.55800        0.58300
H          1.83300        7.34400        0.20100
H          0.71200        5.10000       -1.66000
H         -0.20700        5.94800       -0.40500
H         -0.16500        4.20200       -0.42600
H          2.06500        5.34300        2.46200
H          0.58900        4.43500        2.08100
H          0.61900        6.17700        1.88400
