15
1620-75-3.pdb
C          1.10100        0.03200       -0.09600
C          2.59800        0.07500       -0.02900
C          3.27200        1.28800        0.07900
C          4.66000        1.28100        0.20000
C          5.33600        0.06700        0.20600
C          4.59400       -1.09900        0.07900
N          3.24200       -1.11600       -0.03300
C          5.24600       -2.38000        0.05600
N          5.81600       -3.39300        0.03700
H          0.67400        1.02800       -0.25700
H          0.70300       -0.36600        0.84200
H          0.77800       -0.61100       -0.92000
H          2.73000        2.23000        0.07600
H          5.20500        2.21600        0.29200
H          6.41700        0.03800        0.30600
