22
16205-90-6.pdb
C          2.43900       -1.51800        0.15200
C          2.58800       -0.01900       -0.05800
C          3.12100        0.67400        1.19400
C          3.28600        2.11800        0.97500
C          3.44000        3.29900        0.81600
C          3.64500        4.71800        0.65000
O          3.95000        5.42600        1.59700
O          3.46300        5.11800       -0.63500
C          3.68100        6.51500       -0.87800
C          2.43700        7.31600       -0.54100
H          2.06500       -1.99300       -0.76000
H          1.73400       -1.73300        0.96100
H          3.40100       -1.97700        0.40300
H          1.61500        0.40400       -0.33700
H          3.26500        0.15900       -0.90300
H          4.08800        0.23900        1.47600
H          2.43700        0.50500        2.03300
H          3.90900        6.62300       -1.94400
H          4.55500        6.87900       -0.32500
H          1.57600        6.94300       -1.10500
H          2.58200        8.37400       -0.77500
H          2.18500        7.22600        0.52000
