22
16213-85-7.pdb
C          2.96600       -0.05200       -0.00000
C          1.46700        0.00600       -0.03200
C          0.80400        1.23300       -0.02200
C         -0.58800        1.27200       -0.02600
C         -1.35500        0.09100       -0.04300
C         -2.85100        0.23800       -0.01300
C         -0.69600       -1.16300       -0.06600
C         -1.42500       -2.50400       -0.01200
C         -1.63100       -2.92500        1.43400
N         -1.80200       -3.27500        2.63300
C          0.71300       -1.17500       -0.05400
H          3.40700        0.95200       -0.01200
H          3.34100       -0.59100       -0.87500
H          3.30300       -0.55600        0.91100
H          1.36300        2.16500        0.00200
H         -1.07500        2.24600       -0.00200
H         -3.14600        1.29600        0.00300
H         -3.26800       -0.22400        0.88600
H         -3.29900       -0.20400       -0.90800
H         -0.84300       -3.26800       -0.54000
H         -2.39200       -2.43500       -0.52200
H          1.24300       -2.13000       -0.04000
