38
162167-97-7.pdb
C          3.41700       -0.28800        2.06800
C          4.79800       -0.08600        1.43500
C          4.84000        1.13900        0.51600
C          5.82000        0.13300        2.56400
O          5.21100       -1.30200        0.74700
C          4.57800       -1.74500       -0.36500
O          3.74200       -1.12400       -1.02000
N          4.99500       -3.00400       -0.76600
C          6.18800       -3.67900       -0.26300
C          7.21900       -3.80000       -1.39000
C          6.60900       -4.37000       -2.68300
C          5.30300       -3.65700       -3.10000
C          5.60100       -2.25500       -3.65800
N          4.36000       -1.53200       -4.02500
C          4.35300       -3.65100       -1.90000
H          3.10500        0.59300        2.63800
H          3.42800       -1.14900        2.75000
H          2.65200       -0.49800        1.31600
H          4.64100        2.06000        1.07400
H          4.09900        1.08400       -0.28500
H          5.82100        1.22700        0.03600
H          5.56400        1.00700        3.17400
H          6.82700        0.28400        2.15900
H          5.87800       -0.74000        3.22400
H          5.88200       -4.67300        0.08200
H          6.62500       -3.14900        0.58800
H          8.05000       -4.43500       -1.06400
H          7.64100       -2.81000       -1.60100
H          6.38900       -5.43400       -2.52300
H          7.34700       -4.32200       -3.49200
H          4.83400       -4.24300       -3.90200
H          6.13100       -1.61300       -2.94800
H          6.20000       -2.32600       -4.57300
H          3.82400       -1.26700       -3.17600
H          3.74500       -2.07300       -4.64400
H          4.57900       -0.64800       -4.50400
H          4.10800       -4.67700       -1.60000
H          3.40100       -3.17000       -2.14500
