29
16212-06-9.pdb
O          0.96900       -0.15600        0.20300
S          2.41500       -0.19000        0.07400
O          3.07100       -1.23300       -0.69100
C          2.99700        1.35800       -0.46400
C          2.63100        1.87100       -1.65300
C          1.70800        1.24000       -2.60300
C          0.33200        1.47100       -2.50000
C         -0.56000        0.80600       -3.34500
C         -0.08000       -0.08300       -4.30500
C          1.29200       -0.29900       -4.42900
C          2.18500        0.36100       -3.58100
C          3.03600       -0.33200        1.74700
C          2.24900        0.12600        2.81100
C          2.63100       -0.15800        4.12300
C          3.78900       -0.89800        4.36900
C          4.57700       -1.34400        3.30700
C          4.20200       -1.06500        1.99100
H          3.68900        1.88700        0.17800
H          3.02500        2.83100       -1.97500
H         -0.06100        2.13900       -1.73700
H         -1.62900        0.96400       -3.23700
H         -0.77500       -0.61800       -4.94600
H          1.66600       -1.00000       -5.17100
H          3.24900        0.15900       -3.67200
H          1.31900        0.65900        2.62800
H          2.00800        0.16700        4.95400
H          4.06300       -1.15000        5.39100
H          5.46400       -1.94100        3.50500
H          4.79800       -1.45900        1.17100
