38
16245-79-7.pdb
C          0.88600        0.05400       -0.03300
C          2.40600        0.06000       -0.03400
C          2.95900       -0.99600       -0.98500
C          4.48600       -0.99900       -0.98700
C          5.00800       -2.04700       -1.96400
C          6.53300       -2.05300       -2.02900
C          7.07000       -3.11600       -2.98700
C          6.63600       -2.89700       -4.44000
C          7.19500       -3.98000       -5.32300
C          6.47600       -5.16200       -5.53100
C          7.03700       -6.20700       -6.26900
C          8.30400       -6.07500       -6.83900
N          8.92500       -7.18300       -7.43200
C          9.03300       -4.91000       -6.59900
C          8.47800       -3.85900       -5.86500
H          0.50500        0.81300        0.65500
H          0.49900       -0.92000        0.28300
H          0.49400        0.27000       -1.03300
H          2.77000       -0.12800        0.98300
H          2.76400        1.05200       -0.33000
H          2.59000       -0.80300       -2.00100
H          2.59000       -1.98700       -0.69400
H          4.86300       -1.20800        0.02100
H          4.85800       -0.00900       -1.27700
H          4.58900       -1.83200       -2.95300
H          4.64900       -3.04100       -1.66900
H          6.93800       -2.25000       -1.02900
H          6.90100       -1.06600       -2.33300
H          6.74800       -4.10800       -2.64400
H          8.16600       -3.11300       -2.92800
H          6.96900       -1.91400       -4.79500
H          5.54500       -2.90400       -4.53600
H          5.48900       -5.29100       -5.09300
H          6.47800       -7.13200       -6.37800
H          8.27300       -7.84500       -7.84000
H          9.67800       -6.93700       -8.06500
H         10.05000       -4.81300       -6.96800
H          9.06600       -2.96100       -5.69000
