22
16303-58-5.pdb
C          2.27800       -0.14100       -0.00600
C          0.79500       -0.28100       -0.01500
S         -0.21100        1.09900       -0.03700
C         -1.64700        0.15700        0.02000
C         -1.34500       -1.19300        0.01600
C          0.05700       -1.44300       -0.00300
C         -2.95200        0.77300        0.08000
S         -4.28100       -0.01000        0.83600
C         -5.32400        1.31500        0.56400
C         -6.73000        1.29000        1.05500
C         -4.68900        2.32400       -0.12600
C         -3.32700        2.01300       -0.40400
H          2.60200        0.90500       -0.02000
H          2.71000       -0.63900       -0.87900
H          2.69000       -0.60700        0.89500
H         -2.09600       -1.97300        0.03300
H          0.49800       -2.43200        0.00300
H         -6.97800        0.35800        1.57300
H         -7.42500        1.40600        0.21700
H         -6.89400        2.11600        1.75400
H         -5.17200        3.25200       -0.40900
H         -2.65300        2.67800       -0.93000
