26
16323-43-6.pdb
O          1.15600        0.21900       -0.44100
C          2.45800        0.10900       -0.11200
O          3.00500        0.83200        0.70200
C          3.12800       -0.97600       -0.85600
C          4.43600       -1.20800       -0.65800
C          5.20200       -2.26400       -1.33800
C          4.89700       -2.69900       -2.63300
C          5.64800       -3.70800       -3.24900
C          6.74200       -4.28800       -2.59700
C          7.51400       -5.40000       -3.18200
C          7.71900       -5.55300       -4.50100
C          8.41800       -6.67100       -5.16400
O          9.25000       -7.38400       -4.38500
O          8.25500       -6.90600       -6.35100
C          7.06000       -3.83900       -1.30900
C          6.30500       -2.83200       -0.69200
H          0.82900       -0.41500       -1.10500
H          2.54000       -1.57100       -1.54000
H          4.99100       -0.60700        0.06300
H          4.07200       -2.26300       -3.19000
H          5.34800       -4.03600       -4.24200
H          7.88400       -6.11800       -2.45800
H          7.31300       -4.84800       -5.22100
H          9.40400       -7.01700       -3.49900
H          7.90200       -4.26400       -0.76600
H          6.58400       -2.50800        0.31000
