16
1633-83-6.pdb
O          1.00400       -0.08600        0.16900
S          2.44900       -0.06600        0.25600
O          3.13700        0.19700        1.50200
C          3.08800        1.04500       -0.98700
C          2.67000        0.61300       -2.38500
C          3.14200       -0.80600       -2.70200
C          2.61800       -1.81100       -1.68300
O          3.03700       -1.44800       -0.37800
H          4.17900        1.05600       -0.88600
H          2.70700        2.04400       -0.75600
H          3.08300        1.30900       -3.12300
H          1.57800        0.65800       -2.47700
H          4.23900       -0.82000       -2.69300
H          2.81700       -1.09100       -3.70900
H          3.02000       -2.80500       -1.90200
H          1.52500       -1.88400       -1.72000
