17
16338-48-0.pdb
N          0.97200        0.31600        0.11000
C          2.46500        0.15600        0.06400
C          3.04500        0.47300       -1.32400
C          2.49200       -0.40800       -2.41400
C          1.80700        0.04900       -3.47000
C          3.08800        1.10300        1.10300
O          2.12800        1.70600        1.85400
O          4.28100        1.29700        1.25600
H          0.57500       -0.52900       -0.31600
H          0.71800        1.04600       -0.56400
H          2.70400       -0.86700        0.37600
H          4.13500        0.34400       -1.30300
H          2.87200        1.53100       -1.56200
H          2.69400       -1.47500       -2.33600
H          1.59900        1.10600       -3.60700
H          1.45100       -0.63100       -4.23900
H          1.26800        1.33500        1.52900
