24
163428-90-8.pdb
C          0.94100       -0.21400       -0.48000
O          2.28900        0.04900       -0.11300
C          3.01300       -0.99000        0.40700
C          2.69000       -2.33500        0.17300
C          3.50200       -3.36700        0.66000
C          4.65600       -3.06800        1.38300
C          4.99500       -1.72800        1.60100
C          4.17400       -0.69100        1.14000
O          4.65800        0.55600        1.44600
C          3.69400        1.58200        1.65500
C          5.56900       -4.11400        1.90500
O          6.75400       -3.87600        2.11600
C          5.09300       -5.51100        2.22900
O          3.92000       -5.84200        2.19700
H          0.47700        0.74000       -0.74800
H          0.37900       -0.63500        0.36100
H          0.88600       -0.86300       -1.35900
H          1.82200       -2.61800       -0.41300
H          3.21900       -4.39200        0.43500
H          5.90300       -1.47800        2.14700
H          4.16900        2.36400        2.25500
H          2.82200        1.22500        2.21300
H          3.40400        2.03700        0.70400
H          5.90500       -6.19600        2.52300
