27
16347-60-7.pdb
O          0.90500        0.16600        0.07800
C          2.12700        0.06000       -0.02300
N          2.85900       -1.13400       -0.07200
C          4.23900       -1.07300       -0.03300
N          4.96100        0.00100       -0.00400
C          4.29400        1.22800       -0.03600
C          5.04700        2.40500       -0.07300
C          4.41700        3.65200       -0.11600
C          3.02600        3.73100       -0.11200
C          2.26600        2.56200       -0.07400
C          2.90600        1.31500       -0.04400
C          2.19000       -2.41500       -0.14000
C          0.90300       -2.54000       -0.69100
C          0.25400       -3.77700       -0.77300
C          0.88100       -4.92700       -0.30900
C          2.15600       -4.83600        0.23600
C          2.80200       -3.59500        0.32000
H          4.77100       -2.03200       -0.06000
H          6.13200        2.34600       -0.07600
H          5.01400        4.56000       -0.15300
H          2.53300        4.70000       -0.14000
H          1.18000        2.62300       -0.07100
H          0.37500       -1.68300       -1.10300
H         -0.74200       -3.83500       -1.20300
H          0.37600       -5.88700       -0.36900
H          2.65000       -5.73000        0.60900
H          3.77700       -3.58900        0.80000
