30
163439-82-5.pdb
O          1.00700       -0.06400        0.19700
C          2.42100       -0.06400        0.07100
C          3.06000       -1.09000        0.99600
N          4.47300       -0.59800        1.17400
C          4.33600        0.91400        1.25400
C          3.00900        1.26600        0.56500
O          3.24500        2.19600       -0.48800
C          5.41600       -1.09300        0.10200
C          6.84400       -0.66200        0.29300
C          7.55900       -1.01500        1.44700
C          8.88500       -0.60100        1.61000
C          9.50800        0.15300        0.62000
C          8.81400        0.49300       -0.53900
C          7.49000        0.08700       -0.70300
H          0.60900       -0.56700       -0.54100
H          2.67800       -0.24900       -0.97600
H          3.06500       -2.10600        0.59100
H          2.59000       -1.10500        1.98800
H          4.83900       -0.93300        2.07300
H          5.20900        1.39700        0.80600
H          4.29400        1.15500        2.32100
H          2.33800        1.75800        1.28000
H          3.23600        1.76900       -1.36000
H          5.02400       -0.74500       -0.86000
H          5.36600       -2.18700        0.11500
H          7.11400       -1.62200        2.23000
H          9.43700       -0.87400        2.50600
H         10.54300        0.46600        0.74500
H          9.31300        1.06800       -1.31700
H          6.98000        0.36300       -1.62400
