35
16357-59-8.pdb
C          1.23800       -1.91600        1.44800
C          2.73000       -1.63700        1.36900
O          3.00900       -1.14200        0.06600
C          4.39000       -0.98500       -0.29100
C          5.07600       -2.31700       -0.14000
C          6.31700       -2.47200        0.33000
C          7.11400       -1.27300        0.55500
C          8.50300       -1.40800        0.70400
C          9.31500       -0.28200        0.80700
C          8.74100        0.98100        0.77100
C          7.35500        1.11800        0.66400
C          6.50900       -0.00200        0.57000
N          5.07100        0.11400        0.41900
C          4.44100        1.33800        0.64100
O          4.90000        2.24900        1.32900
O          3.23200        1.47300        0.01800
C          2.61500        2.76200        0.13700
C          1.96600        2.96400        1.49700
H          0.99500       -2.47000        2.35800
H          0.90300       -2.49700        0.58100
H          0.66900       -0.98000        1.44500
H          3.25700       -2.57600        1.55900
H          3.02300       -0.90100        2.12500
H          4.39500       -0.71500       -1.35400
H          4.49400       -3.19800       -0.39500
H          6.76000       -3.45100        0.47400
H          8.96600       -2.39100        0.71100
H         10.39300       -0.38800        0.89100
H          9.36600        1.86900        0.81700
H          6.97400        2.13300        0.60700
H          1.84700        2.81600       -0.64100
H          3.34000        3.55600       -0.08000
H          1.27300        2.14800        1.72200
H          1.42100        3.91300        1.52300
H          2.70800        2.98200        2.30100
