13
16357-69-0.pdb
N          1.14700       -0.04300       -0.13100
C          2.52000        0.05400       -0.04600
N          3.17900       -1.11900       -0.04100
C          4.52200       -1.06300       -0.04400
N          5.26300        0.05200       -0.04500
C          4.56600        1.20700       -0.04900
C          3.18900        1.26500       -0.05600
C          2.51300        2.51900       -0.06100
N          1.95600        3.52900       -0.05000
H          0.76500       -0.97800       -0.05100
H          0.53300        0.74800        0.00800
H          5.05500       -2.00900       -0.04600
H          5.17600        2.10700       -0.05000
