31
16373-93-6.pdb
N          0.39400       -1.87400        0.36000
C          1.60200       -2.34700        0.85600
N          1.60300       -3.00400        2.03800
C          2.77600       -3.49400        2.49600
N          3.99800       -3.42000        1.92700
C          3.94400       -2.73200        0.77500
N          4.97200       -2.44700       -0.08300
C          4.45400       -1.71100       -1.11500
N          3.15500       -1.51600       -0.98400
C          2.82300       -2.16700        0.18800
C          6.32300       -2.95200        0.03000
C          7.08000       -2.52800        1.27900
C          8.48400       -2.21700        0.79800
O          9.44200       -2.88600        1.60200
C          8.47700       -2.54000       -0.70000
C          9.08500       -3.88700       -1.10200
O         10.44000       -3.97900       -0.68100
O          7.10100       -2.50200       -1.09900
H         -0.30100       -1.75000        1.08400
H          0.50100       -1.14100       -0.33200
H          2.72400       -4.01500        3.44900
H          5.05400       -1.35800       -1.94300
H          6.25500       -4.04600       -0.03100
H          7.05500       -3.31400        2.04300
H          6.64000       -1.63300        1.73500
H          8.66100       -1.14200        0.92300
H          9.94700       -3.52400        1.05600
H          9.01300       -1.75000       -1.23900
H          9.03000       -4.02800       -2.18800
H          8.53100       -4.71700       -0.65200
H         10.96600       -3.39500       -1.25900
