29
1637-39-4.pdb
C          2.06600       -2.02000       -0.42100
C          2.98100       -0.83200       -0.30400
C          3.71800       -0.68500        0.99900
O          2.77900       -0.53800        2.05400
C          3.14500        0.05900       -1.30300
C          2.44800        0.07400       -2.63200
N          3.48700        0.08100       -3.64900
C          3.09500        0.59600       -4.88400
N          1.89500        1.19200       -5.05300
C          1.58100        1.72200       -6.25300
N          2.32500        1.74300       -7.36200
C          3.52000        1.15700       -7.18700
N          4.49800        1.05800       -8.14000
C          5.49500        0.44700       -7.54200
N          5.19400        0.13800       -6.24200
C          3.92400        0.58200       -5.99400
H          2.08500       -2.63500        0.48400
H          2.37300       -2.66100       -1.25400
H          1.03200       -1.69700       -0.57800
H          4.38000        0.18700        1.01100
H          4.32900       -1.57100        1.19500
H          2.29200        0.28500        1.88000
H          3.81700        0.90300       -1.15100
H          1.83500        0.98200       -2.65000
H          1.78800       -0.78800       -2.77700
H          3.96900       -0.80500       -3.73400
H          0.60300        2.18900       -6.32100
H          6.45100        0.21000       -7.99100
H          5.80800       -0.30900       -5.57900
