10
1641-09-4.pdb
N         -3.24200        0.29700       -0.01400
C         -2.09200        0.14400       -0.01200
C         -0.67300       -0.04800       -0.00800
C          0.22700        0.99700       -0.00800
S          1.85000        0.44900        0.00000
C          1.35500       -1.19000        0.00300
C         -0.01800       -1.31600       -0.00300
H          0.01800        2.05900       -0.01200
H          2.09400       -1.98000        0.00900
H         -0.52500       -2.27400       -0.00400
