45
16423-51-1.pdb
C          9.43000        3.73900       -1.48400
C          8.17200        4.10400       -0.71200
C          7.61200        2.88000        0.00900
C          6.36500        3.21100        0.82600
C          5.72800        1.96100        1.43700
C          6.53900        1.24000        2.52300
N          6.99600        2.04700        3.66800
C          6.06100        2.49300        4.70500
C          4.55800        2.36700        4.47300
C          3.72300        2.97400        5.60900
C          3.94300        4.48600        5.72400
C          2.98800        5.15000        6.70900
C          3.27100        6.64300        6.79100
C          8.38000        2.12700        3.88000
C          8.90400        2.77600        5.15000
O          9.20500        1.67500        3.08200
H          9.83600        4.61800       -1.99400
H          9.21800        2.97400       -2.23800
H         10.20100        3.34900       -0.81100
H          7.42500        4.50700       -1.40500
H          8.40600        4.89400        0.01200
H          8.38400        2.46500        0.66400
H          7.36800        2.10700       -0.73100
H          5.62500        3.68400        0.16600
H          6.59900        3.94500        1.60700
H          5.53000        1.24000        0.63300
H          4.73600        2.23000        1.80300
H          7.40000        0.77500        2.02900
H          5.95900        0.40200        2.92600
H          6.30300        3.54800        4.87500
H          6.31300        1.94400        5.62200
H          4.28700        1.31100        4.35300
H          4.27000        2.89300        3.56300
H          3.96100        2.48200        6.56000
H          2.66500        2.77600        5.40000
H          3.82300        4.94800        4.73600
H          4.96800        4.68700        6.05200
H          3.10200        4.70200        7.70200
H          1.95100        4.99300        6.39200
H          4.29900        6.82900        7.12000
H          2.59300        7.12300        7.50300
H          3.13600        7.12100        5.81500
H          8.14200        3.14400        5.83700
H          9.53800        3.62200        4.87400
H          9.50200        2.03900        5.69300
