15
16437-69-7.pdb
C          3.65900        1.71300        0.06200
S          2.93000        0.07600       -0.17600
C          3.46600       -0.68800        1.38300
O          4.89200       -0.78400        1.44800
C          5.48200       -0.15500        2.49500
C          6.97200       -0.28600        2.43400
O          4.89900        0.46100        3.37500
H          3.42900        2.33900       -0.80500
H          4.74600        1.64000        0.15000
H          3.24700        2.19100        0.95500
H          3.07100       -1.70800        1.40500
H          3.01300       -0.14800        2.22200
H          7.28300       -0.86300        1.55600
H          7.32600       -0.80200        3.33000
H          7.41600        0.71000        2.36600
