23
16441-28-4.pdb
O          2.81700       -3.44200       -0.11400
C          2.50500       -2.29300        0.32000
O          1.72600       -1.99900        1.27300
C          3.09100       -1.10600       -0.44300
C          4.57800       -0.98700       -0.34600
C          5.50100       -2.00700       -0.22300
S          7.08800       -1.38200       -0.17900
C          6.45900        0.22000       -0.28800
N          5.15000        0.28600       -0.44000
C          7.35300        1.39100       -0.23400
C          7.01500        2.56000       -0.93300
C          7.82800        3.69800       -0.86600
C          8.98700        3.68300       -0.09000
C          9.33600        2.53300        0.61300
C          8.52400        1.39800        0.54200
H          2.63200       -0.18100       -0.07200
H          2.80600       -1.20100       -1.49700
H          5.31000       -3.07000       -0.15500
H          6.10700        2.58600       -1.53400
H          7.54800        4.59300       -1.41100
H          9.61000        4.57000       -0.02500
H         10.22800        2.52000        1.23100
H          8.80700        0.52400        1.12500
