21
16452-01-0.pdb
C          1.06700       -0.24000       -0.11400
O          2.48100       -0.14200       -0.02900
C          3.00600        0.62700        0.97600
C          4.15100        1.33900        0.58400
C          4.89600        2.09700        1.49200
N          5.96400        2.88900        1.05200
C          4.41800        2.22100        2.79300
C          3.28400        1.51500        3.20000
C          2.57400        0.68900        2.30900
C          1.40600       -0.07600        2.86000
H          0.81000       -0.46600       -1.15400
H          0.56200        0.69300        0.15700
H          0.70900       -1.07900        0.48800
H          4.46400        1.29000       -0.45800
H          6.42600        2.52300        0.22500
H          6.62400        3.12200        1.78700
H          4.93200        2.85700        3.50600
H          2.96400        1.60800        4.23600
H          1.37700       -0.03200        3.95400
H          1.47700       -1.13400        2.59300
H          0.46400        0.34700        2.49800
