36
16466-61-8.pdb
C          3.15700        1.02400        1.21600
C          2.72600        0.07000        0.09400
C          3.13500       -1.38100        0.37800
C          1.19100        0.12100       -0.00400
O          3.23400        0.51900       -1.19300
C          4.58100        0.58800       -1.38800
O          5.44300        0.28100       -0.58100
N          4.87000        1.06600       -2.64000
N          6.21100        1.23500       -3.01400
C          6.50100        1.72700       -4.25700
O          5.63900        2.07000       -5.05500
O          7.84500        1.76400       -4.46300
C          8.35500        2.21700       -5.74800
C          7.99600        3.68800       -5.99700
C          9.88800        2.10600       -5.67400
C          7.87500        1.30300       -6.88300
H          2.71600        0.73400        2.17500
H          2.84700        2.05000        0.98700
H          4.24100        1.04900        1.34800
H          2.69400       -1.74200        1.31400
H          4.21800       -1.50100        0.46100
H          2.81000       -2.04100       -0.43500
H          0.72100       -0.20000        0.93400
H          0.82200       -0.52300       -0.80900
H          0.84300        1.13500       -0.23000
H          4.14500        1.33800       -3.29500
H          6.93400        0.94300       -2.36400
H          8.36500        4.32000       -5.18000
H          6.91700        3.85100       -6.04900
H          8.42800        4.04900       -6.93600
H         10.29300        2.72200       -4.86300
H         10.35600        2.42600       -6.61300
H         10.20000        1.07600       -5.47000
H          6.79000        1.32600       -7.00800
H          8.14200        0.26000       -6.67500
H          8.32100        1.59100       -7.84100
