20
1646-26-0.pdb
C          1.24900       -0.54500       -0.45300
C          2.55000        0.10500       -0.05600
O          2.85700        1.20700       -0.51300
C          3.38800       -0.61100        0.88200
O          3.03900       -1.86900        1.29400
C          4.00800       -2.29400        2.15500
C          4.04200       -3.53000        2.79700
C          5.13100       -3.76400        3.64500
C          6.12200       -2.79700        3.83300
C          6.06000       -1.56300        3.17300
C          4.97800       -1.31200        2.31200
C          4.57300       -0.23500        1.48600
H          0.74000        0.08600       -1.19000
H          0.60100       -0.64600        0.42100
H          1.43400       -1.52200       -0.90600
H          3.26700       -4.27100        2.64200
H          5.20700       -4.71600        4.16700
H          6.95700       -3.00400        4.50100
H          6.83500       -0.81700        3.32500
H          5.07600        0.71100        1.33900
