28
1647-16-1.pdb
C          1.50200       -0.95900       -0.55000
C          2.36200       -0.04400       -0.08300
C          3.14500        0.88600       -0.96200
C          4.65000        0.69800       -0.77600
C          5.43200        1.64800       -1.68400
C          6.93700        1.46500       -1.50900
C          7.71900        2.41600       -2.41600
C          9.22400        2.22600       -2.23200
C         10.00600        3.15900       -3.10800
C         10.86600        4.07200       -2.63800
H          0.95700       -1.60500        0.12800
H          1.32600       -1.08200       -1.61400
H          2.50600        0.04900        0.99200
H          2.86600        1.91700       -0.71300
H          2.88500        0.73000       -2.01600
H          4.92800       -0.33900       -1.00300
H          4.92500        0.88100        0.27100
H          5.15700        2.68500       -1.45500
H          5.15800        1.46400       -2.73000
H          7.21200        0.42800       -1.74000
H          7.21100        1.64700       -0.46300
H          7.44200        3.45300       -2.18700
H          7.44400        2.23500       -3.46300
H          9.50200        1.19600       -2.48300
H          9.48500        2.37800       -1.17700
H          9.86500        3.06800       -4.18300
H         11.04300        4.19200       -1.57400
H         11.41400        4.72000       -3.31500
