29
16474-43-4.pdb
C          3.03500        0.59700        1.42400
C          2.59900        0.02200        0.07000
C          3.01300       -1.44600       -0.10000
C          1.06500        0.09600       -0.00500
O          3.09200        0.83700       -1.02500
C          4.43600        0.98600       -1.21200
O          5.30000        0.46000       -0.52500
C          4.74300        1.90900       -2.39400
C          4.18500        3.31200       -2.11700
C          6.26900        2.00300       -2.56600
C          4.13100        1.33600       -3.67900
H          2.59000        0.04100        2.25600
H          2.73600        1.64800        1.51000
H          4.12000        0.57200        1.55800
H          2.58500       -2.07400        0.68900
H          4.09800       -1.57900       -0.07300
H          2.67700       -1.83100       -1.07000
H          0.59400       -0.48200        0.79700
H          0.69800       -0.28700       -0.96500
H          0.71700        1.13300        0.06900
H          4.61200        3.72900       -1.19800
H          3.09700        3.29600       -1.99200
H          4.41600        3.99900       -2.93800
H          6.74100        2.42700       -1.67200
H          6.54000        2.63300       -3.41900
H          6.71000        1.01200       -2.72700
H          3.03800        1.28800       -3.62200
H          4.49300        0.31800       -3.86800
H          4.39000        1.95100       -4.54900
