33
16485-10-2.pdb
C          0.98100        0.12600        0.06600
C          2.52300        0.11400       -0.04300
C          2.89000       -0.59600       -1.36200
C          3.03800        1.56500       -0.10900
O          2.79300        2.25500        1.11400
C          3.09800       -0.63900        1.19000
O          2.59800       -1.98200        1.21800
C          4.64000       -0.68300        1.22100
O          5.25500       -1.62800        0.72500
N          5.25100        0.38400        1.83600
C          6.69300        0.51500        1.91600
C          7.20800        0.51600        3.35000
C          6.86800       -0.76200        4.10600
O          7.41200       -0.69700        5.41900
H          0.53200        0.68600       -0.76200
H          0.64900        0.59200        1.00100
H          0.56700       -0.88800        0.03700
H          2.46200       -0.06800       -2.22100
H          2.51000       -1.62400       -1.38900
H          3.97400       -0.63700       -1.51200
H          2.56500        2.12600       -0.92300
H          4.11700        1.59500       -0.29900
H          1.86800        2.55800        1.09400
H          2.75500       -0.16800        2.12000
H          3.22300       -2.51200        0.68300
H          4.67000        1.14700        2.17800
H          6.94600        1.46800        1.43800
H          7.18100       -0.27900        1.34200
H          6.80600        1.37700        3.89800
H          8.29700        0.65000        3.34200
H          7.26900       -1.64900        3.60400
H          5.78500       -0.88400        4.20500
H          8.38000       -0.73800        5.33700
