20
16520-62-0.pdb
C          1.09200       -0.81900        1.20800
C          2.29700       -0.77800        1.19300
C          3.77900       -0.78000        1.15900
C          4.36700        0.63000        1.28200
C          5.88300        0.67500        1.27100
C          6.62800        0.21200        0.17500
C          8.02200        0.32900        0.15600
C          8.68900        0.91500        1.22900
C          7.96500        1.36800        2.32900
C          6.57300        1.24700        2.35100
H          0.02600       -0.86300        1.21900
H          4.11600       -1.23800        0.22100
H          4.16800       -1.40900        1.97000
H          4.00000        1.09200        2.20900
H          4.00200        1.26500        0.46500
H          6.13800       -0.23600       -0.68600
H          8.58500       -0.02800       -0.70300
H          9.77100        1.02100        1.20500
H          8.48300        1.82500        3.16900
H          6.02800        1.61400        3.21900
