36
1653-30-1.pdb
C          0.83600        0.05400        0.00600
C          2.35600        0.04700        0.02100
C          2.88800       -0.22900        1.42500
C          4.41400       -0.23900        1.44600
C          4.93700       -0.51700        2.85500
C          6.46200       -0.53100        2.87600
C          6.99300       -0.80600        4.28200
C          8.52000       -0.81700        4.28300
C          9.07900       -1.10600        5.67800
C         10.61000       -1.12200        5.67700
C         11.16800       -1.38900        7.06700
O         11.09000       -2.13100        4.79300
H          0.46700        0.25300       -1.00700
H          0.44200        0.82900        0.67100
H          0.43700       -0.91200        0.33000
H          2.72600        1.01500       -0.33500
H          2.72100       -0.71700       -0.67500
H          2.51000       -1.19600        1.77800
H          2.51600        0.53600        2.11700
H          4.79600        0.72700        1.09500
H          4.78900       -1.00500        0.75600
H          4.55400       -1.48300        3.20700
H          4.56500        0.25100        3.54400
H          6.84400        0.43400        2.52100
H          6.83300       -1.29900        2.18600
H          6.61500       -1.77200        4.63700
H          6.62600       -0.03900        4.97500
H          8.89500        0.15300        3.93300
H          8.87400       -1.57400        3.57400
H          8.69900       -2.08000        6.01300
H          8.71600       -0.35000        6.38500
H         10.99200       -0.16100        5.31500
H         10.81200       -2.35100        7.45400
H         10.88200       -0.60100        7.76900
H         12.26100       -1.44900        7.03200
H         10.72400       -2.98300        5.08600
