62
1654-86-0.pdb
C          9.19200        7.66900       -0.54900
C          9.11500        6.15800       -0.44900
C          9.60100        5.51500       -1.74100
C          9.52800        3.99800       -1.64500
C         10.01300        3.36400       -2.94000
C          9.93800        1.84700       -2.84600
C         10.42600        1.21000       -4.14000
C         10.35400       -0.30900       -4.04900
C         10.83700       -0.95200       -5.34300
C         10.77300       -2.47100       -5.25900
O         11.23400       -3.05700       -6.48500
C         12.60000       -3.10400       -6.57700
O         13.37000       -2.70500       -5.72700
C         13.03600       -3.69700       -7.90000
C         12.51000       -2.87900       -9.07100
C         13.00600       -1.43800       -9.03500
C         12.44600       -0.66100      -10.21900
C         12.93500        0.77900      -10.18800
C         12.37800        1.55700      -11.37100
C         12.87200        2.99600      -11.33400
C         12.32000        3.78500      -12.51400
C         12.81500        5.21900      -12.47200
H          8.84200        8.12900        0.37800
H          8.56900        8.03400       -1.37200
H         10.22200        7.99200       -0.72900
H          8.08100        5.85400       -0.24800
H          9.72600        5.81300        0.39300
H         10.63500        5.82200       -1.94400
H          8.99000        5.86200       -2.58300
H          8.49500        3.68800       -1.44400
H         10.14200        3.64800       -0.80600
H         11.04600        3.67400       -3.14100
H          9.40100        3.71600       -3.77900
H          8.90400        1.54000       -2.64400
H         10.54900        1.49900       -2.00400
H         11.45800        1.52400       -4.33800
H          9.81300        1.56300       -4.97800
H          9.32100       -0.61500       -3.84400
H         10.96600       -0.65500       -3.20800
H         11.86500       -0.64000       -5.55500
H         10.23600       -0.60800       -6.19200
H          9.74100       -2.79700       -5.08600
H         11.38100       -2.83800       -4.42400
H         12.67200       -4.72800       -7.96300
H         14.13200       -3.73100       -7.92400
H         11.41500       -2.88400       -9.05700
H         12.82000       -3.34600      -10.01200
H         14.10300       -1.41600       -9.06100
H         12.69600       -0.95200       -8.10200
H         11.34900       -0.68000      -10.19300
H         12.75400       -1.13800      -11.15700
H         14.03200        0.79800      -10.21500
H         12.62500        1.25600       -9.25000
H         11.28100        1.53900      -11.34500
H         12.68800        1.08000      -12.30900
H         13.96800        3.01100      -11.35700
H         12.56300        3.46900      -10.39400
H         11.22400        3.77500      -12.49000
H         12.63100        3.31700      -13.45500
H         12.49600        5.71200      -11.54900
H         12.41800        5.78300      -13.32000
H         13.90900        5.25200      -12.51800
