26
1655-07-8.pdb
C          2.79300       -2.19700       -0.43400
C          2.68700       -0.69200       -0.26400
O          3.14500       -0.08600       -1.47900
C          4.48800        0.13100       -1.53800
O          5.24100        0.17800       -0.57200
C          4.93100        0.25500       -2.97100
C          5.66000        1.58500       -3.15700
C          6.31800        1.69000       -4.52800
C          7.30300        0.54500       -4.72800
C          6.61000       -0.80400       -4.63300
C          5.78900       -0.93300       -3.37300
O          5.69500       -2.02900       -2.81000
H          2.45100       -2.72500        0.45900
H          3.82700       -2.49200       -0.64400
H          2.19600       -2.52200       -1.29300
H          3.24900       -0.34500        0.61100
H          1.64200       -0.40100       -0.11700
H          4.05200        0.23600       -3.63000
H          6.42900        1.71100       -2.38500
H          4.95200        2.41300       -3.02500
H          6.84300        2.64700       -4.61000
H          5.55300        1.67000       -5.31500
H          8.09200        0.60800       -3.96800
H          7.79000        0.64100       -5.70600
H          7.36300       -1.60100       -4.64700
H          5.93900       -0.95500       -5.48600
