27
1655-68-1.pdb
C          1.35900        0.18800        0.71800
O          2.53100       -0.14300       -0.01800
C          3.00100        0.81000       -0.88000
C          2.43500        2.06900       -1.08800
C          2.98100        2.93700       -2.03300
C          4.10900        2.55700       -2.75700
C          4.73500        1.33800       -2.49200
O          5.89800        0.92500       -3.10200
C          6.84400        1.86600       -3.45600
C          7.12100        3.01600       -2.70900
C          8.03900        3.95500       -3.18100
C          8.73300        3.71400       -4.36400
C          8.52000        2.52900       -5.06900
C          7.57600        1.60500       -4.61500
C          4.15500        0.45100       -1.58500
H          1.08300       -0.68100        1.32300
H          0.51700        0.40800        0.05300
H          1.55100        1.02300        1.40000
H          1.56500        2.40500       -0.53300
H          2.53200        3.91300       -2.20000
H          4.50000        3.23800       -3.51100
H          6.60700        3.20700       -1.77000
H          8.20700        4.87300       -2.62400
H          9.44600        4.44800       -4.73400
H          9.08400        2.32900       -5.97700
H          7.40800        0.68700       -5.17000
H          4.60800       -0.52200       -1.41900
