25
16593-81-0.pdb
O          1.09300       -0.14400        0.07200
C          2.47100       -0.03600       -0.01700
C          3.07600        1.15600       -0.08800
C          4.53800        1.27800       -0.19500
O          5.08600        2.37200       -0.16200
C          5.31100        0.04100       -0.37600
C          4.73000       -1.15800       -0.29800
C          3.27500       -1.31200       -0.00000
N          2.67500       -2.43600        0.26000
N          3.43700       -3.56300        0.34400
C          2.79100       -4.77900        0.63400
C          1.48800       -5.02900        0.21300
C          0.90100       -6.26000        0.50100
C          1.63500       -7.21200        1.19100
C          2.92900       -6.89200        1.56300
N          3.52000       -5.70300        1.29900
H          0.69300        0.73900        0.04700
H          2.53200        2.09200       -0.07300
H          6.37000        0.15600       -0.57700
H          5.31100       -2.05900       -0.45100
H          4.28600       -3.55400        0.90700
H          0.93300       -4.26900       -0.32700
H         -0.11800       -6.46600        0.18700
H          1.21400       -8.18200        1.43000
H          3.54800       -7.60200        2.10200
