31
1660-04-4.pdb
C          2.60700        1.53800       -0.50000
C          2.55300        0.10800       -0.01600
O          1.92000       -0.73100       -0.65500
C          3.29900       -0.24500        1.28300
C          2.72600        0.56800        2.46700
C          3.45300        0.21300        3.77300
C          3.27000       -1.28700        4.05400
C          3.86200       -2.11600        2.90400
C          5.35800       -1.79000        2.76100
C          5.54400       -0.29300        2.46500
C          4.94900        0.52900        3.62100
C          4.80900        0.06100        1.15900
C          3.13800       -1.75500        1.59600
H          2.02000        1.63300       -1.42000
H          3.63600        1.82700       -0.72300
H          2.17600        2.20600        0.24600
H          1.65100        0.37500        2.58300
H          2.82700        1.64300        2.27900
H          3.03400        0.80000        4.59800
H          2.20300       -1.51700        4.17000
H          3.75900       -1.55300        4.99900
H          3.73400       -3.18400        3.11200
H          5.79700       -2.38900        1.95400
H          5.88700       -2.05900        3.68300
H          6.61100       -0.06700        2.36300
H          5.09000        1.60000        3.43000
H          5.47600        0.30000        4.55500
H          5.24500       -0.50300        0.32400
H          4.97100        1.12100        0.93300
H          2.07600       -2.02000        1.68100
H          3.53900       -2.35700        0.77000
