42
1662-01-7.pdb
C          1.07100       -0.09500       -0.63000
C          0.54500        0.58600        0.45400
C         -0.84200        0.76900        0.50800
C         -1.76900        0.36700       -0.52000
C         -1.19200       -0.34400       -1.56300
C          0.20800       -0.57300       -1.61500
C         -3.20300        0.82300       -0.38200
C         -3.30200        2.07800        0.25300
C         -4.46500        2.47900        0.83700
N         -5.58700        1.79800        0.70000
C         -5.64700        0.80200       -0.19300
C         -4.48000        0.22400       -0.78100
C         -4.77900       -0.83700       -1.69200
C         -6.11400       -1.06300       -2.16200
C         -7.23900       -0.34300       -1.64700
C         -8.65400       -0.49000       -1.93500
C         -9.34800       -0.76100       -0.76900
C         -9.17600        0.26900        0.11400
N         -7.98300        0.86300        0.25600
C         -6.95600        0.43500       -0.51900
C         -9.50300        0.48400       -2.82700
C         -9.01100        1.45800       -3.69600
C         -9.86800        2.39400       -4.33100
C        -11.25600        2.39600       -4.10300
C        -11.78500        1.45300       -3.27000
C        -10.92800        0.50200       -2.66400
H          2.14500       -0.24700       -0.69700
H          1.18100        0.98100        1.23600
H         -1.20300        1.29200        1.39800
H         -1.78900       -0.70600       -2.39400
H          0.64100       -1.12200       -2.45100
H         -2.44200        2.73300        0.35500
H         -4.52900        3.37700        1.43700
H         -3.97700       -1.45500       -2.09200
H         -6.28300       -1.85300       -2.89500
H         -9.09800       -1.73900       -0.32800
H        -10.01300        0.88200        0.44800
H         -7.94000        1.55100       -3.88600
H         -9.45800        3.15400       -4.99100
H        -11.89700        3.14000       -4.57600
H        -12.85600        1.44300       -3.04900
H        -11.42600       -0.19900       -1.99800
