17
16630-52-7.pdb
C          1.14600       -0.08200       -0.02900
S          2.95000       -0.01800       -0.17400
C          3.44700       -0.86700        1.38700
C          2.91300       -2.30000        1.41400
C          4.97800       -0.82500        1.44300
C          5.53800       -1.48900        2.67400
O          4.97100       -1.50600        3.76400
H          0.70600        0.47900       -0.85900
H          0.81700        0.37200        0.90900
H          0.78400       -1.11000       -0.09700
H          3.03300       -0.30300        2.23000
H          3.25300       -2.87700        0.54600
H          1.82000       -2.32500        1.44100
H          3.24600       -2.83200        2.31100
H          5.35500        0.20400        1.44300
H          5.41400       -1.34200        0.57700
H          6.54500       -1.92300        2.56100
