36
1663-61-2.pdb
C          0.76400        1.11500        1.69300
C          2.23600        0.81200        1.89300
O          2.91900        1.12800        0.67400
C          4.35300        1.14200        0.77600
O          4.82800       -0.06500        1.40200
C          4.48900       -1.25400        0.69000
C          5.01600       -2.44500        1.47300
O          4.95300        1.23400       -0.53000
C          4.72100        2.45800       -1.22100
C          5.43500        2.41500       -2.56100
C          4.85300        2.32000        1.63300
C          4.00800        3.38900        2.00200
C          4.44800        4.41100        2.83700
C          5.76800        4.42600        3.27100
C          6.64900        3.42900        2.85600
C          6.19600        2.38200        2.04800
H          0.22100        1.04500        2.63900
H          0.32400        0.40700        0.98200
H          0.62600        2.11800        1.27600
H          2.35900       -0.24300        2.15200
H          2.60500        1.40000        2.73800
H          4.92500       -1.25000       -0.31400
H          3.40400       -1.35300        0.59700
H          6.10900       -2.47500        1.43500
H          4.62900       -3.38300        1.06400
H          4.73300       -2.37900        2.52900
H          5.13200        3.30600       -0.66400
H          3.64900        2.61300       -1.37300
H          6.50000        2.19700       -2.42600
H          5.34000        3.37400       -3.08000
H          5.02300        1.62800       -3.19900
H          2.98300        3.42300        1.63500
H          3.75600        5.18700        3.15200
H          6.11100        5.21400        3.93500
H          7.69100        3.46200        3.16500
H          6.89500        1.61000        1.72800
