37
16652-64-5.pdb
N          0.97600       -2.29600       -0.02900
C          1.90000       -1.12400       -0.18700
C          3.05200       -1.12400        0.82900
C          2.60000       -1.02600        2.26500
C          2.34400       -2.17800        3.02200
C          1.96800       -2.07300        4.36200
C          1.86300       -0.82100        4.96600
O          1.57900       -0.83000        6.30600
C          1.99500        0.34800        7.00900
C          2.13300        0.09000        8.48900
C          3.12700        0.76700        9.21100
C          3.25500        0.58900       10.58800
C          2.38200       -0.26300       11.26000
C          1.38200       -0.93300       10.55600
C          1.25300       -0.75600        9.17700
C          2.05700        0.32800        4.20000
C          2.43300        0.22800        2.86000
C          2.49500       -1.16900       -1.60300
O          1.93400       -2.16100       -2.34400
O          3.36200       -0.42200       -2.02800
H          0.37000       -2.08200        0.77300
H          1.53000       -3.09200        0.30600
H          1.29800       -0.21000       -0.11800
H          3.72800       -0.28300        0.62000
H          3.67400       -2.02100        0.70300
H          2.45900       -3.16700        2.58600
H          1.79100       -2.97200        4.94800
H          1.25100        1.13900        6.86200
H          2.97200        0.68000        6.63400
H          3.81500        1.44000        8.70100
H          4.03400        1.11500       11.13400
H          2.47800       -0.40200       12.33300
H          0.69900       -1.59500       11.08200
H          0.46500       -1.28100        8.64200
H          1.94600        1.32200        4.62300
H          2.61800        1.13900        2.29400
H          1.24600       -2.56900       -1.75900
