23
1669-44-9.pdb
C          0.87500       -0.01900       -0.00500
C          2.39600       -0.01600        0.00500
C          2.93900        0.44400        1.35700
C          4.46800        0.45200        1.37700
C          4.97500        0.89400        2.72200
C          5.74800        1.97600        2.89800
C          6.25500        2.47200        4.20400
C          5.61500        2.04800        5.50200
O          7.19700        3.26800        4.19900
H          0.50300       -0.35100       -0.97700
H          0.47900        0.98400        0.18700
H          0.47900       -0.69500        0.76100
H          2.76000        0.64600       -0.78900
H          2.75900       -1.02500       -0.21800
H          2.56000       -0.21800        2.14600
H          2.56100        1.45200        1.57900
H          4.84600        1.10600        0.58200
H          4.84900       -0.55500        1.17300
H          4.68600        0.26500        3.55800
H          6.07300        2.57500        2.05300
H          4.73700        1.41800        5.35800
H          5.28900        2.94400        6.03700
H          6.34800        1.50300        6.10400
