18
1670-81-1.pdb
O          1.25200        0.61400       -0.36100
C          2.32100       -0.00900       -0.06100
O          2.77600       -0.17500        1.11500
C          3.12200       -0.59900       -1.20700
C          2.69100       -0.45200       -2.53500
C          3.41900       -0.96600       -3.61500
C          4.60800       -1.64400       -3.32600
N          5.52200       -2.23500       -4.16800
C          6.54700       -2.78700       -3.44600
C          6.29100       -2.55600       -2.11400
C          5.07200       -1.82700       -2.02500
C          4.32000       -1.29900       -0.95600
H          1.76200        0.08500       -2.72400
H          3.06500       -0.83300       -4.63000
H          5.44000       -2.24600       -5.17400
H          7.36500       -3.29300       -3.93900
H          6.91000       -2.86500       -1.28200
H          4.65900       -1.42100        0.07000
