26
1671-87-0.pdb
C          0.80300        1.21200        0.01200
C          0.38800        0.67900       -1.20000
C         -0.32200       -0.51900       -1.21000
C         -0.59300       -1.17100       -0.00400
N         -0.18200       -0.64800        1.18700
C          0.49400        0.52100        1.17000
C         -1.31100       -2.45300        0.03800
N         -1.12300       -3.28200        1.08600
N         -1.74100       -4.50000        1.08400
C         -2.52800       -4.83800        0.03900
N         -2.72300       -4.00400       -1.00500
N         -2.09700       -2.78900       -1.00800
C         -3.16600       -6.16600        0.04000
C         -2.98600       -7.07100        1.09200
C         -3.60600       -8.31800        1.04400
C         -4.39400       -8.64300       -0.05000
C         -4.53000       -7.70400       -1.05600
N         -3.94100       -6.48900       -1.03500
H          1.35700        2.14400        0.05500
H          0.61700        1.18700       -2.13200
H         -0.64500       -0.94500       -2.15700
H          0.79200        0.89800        2.14500
H         -2.36600       -6.81500        1.94800
H         -3.47100       -9.02800        1.85600
H         -4.89100       -9.60400       -0.11900
H         -5.13400       -7.90900       -1.93600
