22
16712-64-4.pdb
O          1.18200        0.12600       -0.08400
C          2.50600       -0.07700        0.07200
O          3.08000        0.06000        1.13800
C          3.20500       -0.51300       -1.16600
C          2.80000       -0.09300       -2.43800
C          3.52400       -0.48900       -3.56600
C          4.66900       -1.29300       -3.44300
C          5.42400       -1.66800       -4.56700
C          6.56200       -2.45400       -4.41300
O          7.32400       -2.82200       -5.48200
C          6.96400       -2.88700       -3.15700
C          6.22600       -2.52200       -2.03100
C          5.08000       -1.72000       -2.15700
C          4.34200       -1.32100       -1.03000
H          0.80800       -0.19200       -0.92500
H          1.95400        0.57500       -2.57200
H          3.19900       -0.14600       -4.54700
H          5.12300       -1.33300       -5.55600
H          6.95400       -2.42100       -6.28500
H          7.85400       -3.50200       -3.05200
H          6.55900       -2.86100       -1.05300
H          4.66100       -1.62700       -0.03400
