32
1671-75-6.pdb
C          0.89100        0.00900       -0.02900
C          2.41000        0.00800       -0.04800
C          2.95100        1.15800       -0.89300
C          4.47800        1.16400       -0.91700
C          4.99300        2.32400       -1.76400
C          6.51800        2.35800       -1.80600
C          7.01300        3.52200       -2.64600
O          6.24900        4.28800       -3.22400
C          8.48100        3.73000       -2.77100
C          9.40800        2.91000       -2.11800
C         10.77500        3.12800       -2.29300
C         11.21900        4.16100       -3.11800
C         10.30000        4.98900       -3.76200
C          8.93200        4.77400       -3.58900
H          0.51800       -0.81900        0.58000
H          0.48700       -0.10200       -1.04100
H          0.50600        0.94400        0.39300
H          2.76700       -0.94800       -0.44900
H          2.78500        0.09200        0.97800
H          2.58600        2.11200       -0.49200
H          2.56800        1.07300       -1.91800
H          4.84700        0.21500       -1.32400
H          4.86600        1.25200        0.10500
H          4.61700        3.27200       -1.36100
H          4.60200        2.23700       -2.78600
H          6.89100        1.41800       -2.23000
H          6.90900        2.47700       -0.79000
H          9.09400        2.08900       -1.48100
H         11.49500        2.48300       -1.79600
H         12.28300        4.31800       -3.26700
H         10.64600        5.79400       -4.40400
H          8.22000        5.41800       -4.10100
