24
16728-00-0.pdb
C          1.32600        0.50400       -0.82600
O          2.39300        0.03000       -0.01300
C          3.10300       -1.03500       -0.49600
C          2.79200       -1.77500       -1.63300
C          3.62500       -2.82500       -2.03700
C          4.79300       -3.15800       -1.32700
C          5.06000       -2.43000       -0.15600
C          4.22900       -1.38100        0.25000
C          5.73000       -4.25900       -1.83100
C          6.37900       -3.99000       -3.19300
C          7.21800       -3.92700       -1.95800
C          5.43100       -5.65200       -1.53000
N          5.21300       -6.76900       -1.30600
H          0.89100        1.37700       -0.33200
H          0.53900       -0.25100       -0.92100
H          1.68900        0.82300       -1.81000
H          1.91500       -1.56200       -2.23500
H          3.36300       -3.38500       -2.93300
H          5.93600       -2.66700        0.44400
H          4.47100       -0.82000        1.15100
H          6.16900       -3.05200       -3.69800
H          6.52600       -4.82200       -3.87400
H          7.56900       -2.95300       -1.63500
H          7.94800       -4.71600       -1.80700
