35
1674-37-9.pdb
C          0.87400       -0.09100        0.05800
C          2.39200       -0.08600        0.03900
C          2.92900        0.92500       -0.97100
C          4.45500        0.92600       -0.98700
C          4.99300        1.93700       -1.99500
C          6.51800        1.93000       -2.00500
C          7.05800        2.93900       -3.01100
C          8.57300        2.94600       -3.04800
O          9.26300        2.23000       -2.31900
C          9.24000        3.83900       -4.03000
C          8.50400        4.63900       -4.91300
C          9.16400        5.44900       -5.83300
C         10.55900        5.47000       -5.87200
C         11.29500        4.67900       -4.99000
C         10.64000        3.86600       -4.07000
H          0.50500       -0.81900        0.78700
H          0.47100       -0.35700       -0.92500
H          0.48300        0.89400        0.33300
H          2.75400       -1.09000       -0.21000
H          2.76600        0.15500        1.04100
H          2.56200        1.92800       -0.72100
H          2.55100        0.68300       -1.97200
H          4.82300       -0.07600       -1.23900
H          4.83400        1.16700        0.01400
H          4.62800        2.94000       -1.74400
H          4.61600        1.69700       -2.99700
H          6.88600        0.92600       -2.25300
H          6.89900        2.17100       -1.00600
H          6.69400        3.93700       -2.74600
H          6.69900        2.68000       -4.01300
H          7.41900        4.65400       -4.89900
H          8.59200        6.07500       -6.51500
H         11.07100        6.10800       -6.58500
H         12.38200        4.69800       -5.01800
H         11.21800        3.25300       -3.38100
