24
167479-78-9.pdb
N          0.93900        0.09400       -0.18900
C          2.45800        0.07400       -0.12200
C          2.95800       -1.25900        0.43700
C          2.47800       -1.55000        1.84400
C          1.29100       -2.26400        2.06300
C          0.85700       -2.53700        3.36200
C          1.61400       -2.11600        4.46100
C          2.80100       -1.40900        4.25000
C          3.22700       -1.12200        2.94900
C          1.17800       -2.41800        5.79200
N          0.81200       -2.66100        6.86800
C          3.03500        0.23700       -1.55500
O          2.09100        0.30100       -2.40400
O          4.27900        0.28700       -1.66800
H          0.44500       -0.06600        0.68700
H          0.69100       -0.57200       -0.93800
H          0.68700        0.98800       -0.63000
H          2.74300        0.92500        0.50500
H          4.05600       -1.27600        0.44100
H          2.66300       -2.08800       -0.22100
H          0.70700       -2.63900        1.22500
H         -0.06300       -3.09900        3.51400
H          3.40900       -1.08900        5.09500
H          4.16600       -0.58600        2.80800
