47
1674-38-0.pdb
C          0.95200        0.00600       -0.08800
C          2.46900        0.00100       -0.09300
C          2.99600       -1.06100       -1.05000
C          4.51800       -1.06900       -1.05800
C          5.03400       -2.13300       -2.01400
C          6.55400       -2.14200       -2.02100
C          7.06500       -3.20500       -2.97800
C          8.58400       -3.21600       -2.99000
C          9.09500       -4.27700       -3.95100
C         10.61300       -4.28200       -3.95300
C         11.15300       -5.34200       -4.89900
C         12.66400       -5.34000       -4.88000
O         13.31700       -4.54200       -4.20400
C         13.38100       -6.33100       -5.71900
C         12.70000       -7.28800       -6.48400
C         13.42300       -8.17700       -7.27600
C         14.81500       -8.10200       -7.32200
C         15.49400       -7.14700       -6.56900
C         14.77900       -6.27300       -5.75200
H          0.57700        0.76900        0.60000
H          0.56200       -0.96600        0.23100
H          0.56100        0.22100       -1.08700
H          2.83900       -0.19300        0.92000
H          2.83800        0.98900       -0.39200
H          2.62400       -0.86800       -2.06300
H          2.62400       -2.04900       -0.75200
H          4.89600       -1.26400       -0.04700
H          4.89500       -0.08400       -1.36100
H          4.65900       -1.93800       -3.02700
H          4.65800       -3.11900       -1.71400
H          6.93000       -2.33900       -1.00900
H          6.93100       -1.15700       -2.32100
H          6.68700       -3.00800       -3.98900
H          6.68900       -4.19000       -2.67700
H          8.96200       -3.41400       -1.97900
H          8.96100       -2.23000       -3.28800
H          8.72000       -4.07700       -4.96200
H          8.71800       -5.26300       -3.65300
H         10.98500       -4.47300       -2.93800
H         10.98700       -3.29400       -4.24800
H         10.80300       -5.14000       -5.91900
H         10.79800       -6.32900       -4.58200
H         11.61800       -7.35700       -6.48300
H         12.89800       -8.92500       -7.87000
H         15.37300       -8.78900       -7.95200
H         16.57600       -7.07400       -6.61800
H         15.31300       -5.54000       -5.15100
