24
1676-63-7.pdb
C          0.88800        0.27700       -0.42900
C          2.38300        0.37900       -0.66400
O          2.93800        1.24700        0.32500
C          4.28400        1.48400        0.24500
C          5.15300        0.91300       -0.68400
C          6.51000        1.24200       -0.67000
C          7.01700        2.15300        0.26300
C          6.15300        2.72300        1.20200
C          4.79100        2.38200        1.19000
C          8.47700        2.44300        0.21600
C          8.99800        3.78600        0.66000
O          9.24700        1.58500       -0.21800
H          0.42800       -0.40600       -1.14700
H          0.41800        1.26100       -0.52600
H          0.67900       -0.08000        0.58400
H          2.55700        0.78500       -1.66800
H          2.82500       -0.62100       -0.58100
H          4.81000        0.20700       -1.43400
H          7.17300        0.78500       -1.40500
H          6.50800        3.41500        1.95700
H          4.11900        2.81900        1.92600
H          8.20400        4.50100        0.88100
H          9.60000        4.20800       -0.15200
H          9.62500        3.65500        1.54600
