27
1678-25-7.pdb
O          1.04600       -0.00400       -0.09300
S          2.49200       -0.07400       -0.06000
O          3.17100       -1.24600        0.45300
N          3.00800        0.23800       -1.63500
C          4.39500        0.21200       -1.92900
C          5.01200       -1.01100       -2.19100
C          6.37400       -1.05300       -2.49500
C          7.11800        0.12600       -2.51400
C          6.50100        1.34700       -2.23400
C          5.13600        1.39200       -1.94400
C          3.05500        1.34400        0.86200
C          2.22600        2.47000        0.95700
C          2.59800        3.53600        1.77700
C          3.78800        3.47400        2.50400
C          4.61600        2.35300        2.40400
C          4.24900        1.28100        1.58500
H          2.43800        0.93700       -2.10700
H          4.43500       -1.93300       -2.17500
H          6.85100       -2.00400       -2.71700
H          8.17900        0.09400       -2.74700
H          7.08600        2.26300       -2.24100
H          4.66800        2.34800       -1.72800
H          1.27900        2.51200        0.42400
H          1.94900        4.40400        1.87200
H          4.06300        4.29400        3.16400
H          5.53500        2.30500        2.98300
H          4.88600        0.40100        1.53200
