33
1679-53-4.pdb
O          0.96300        0.10800       -0.02200
C          2.38200        0.12300       -0.04400
C          2.90100       -0.83600        1.01400
C          4.42300       -0.85300        1.03000
C          4.94900       -1.81300        2.09000
C          6.47400       -1.82100        2.09900
C          7.00000       -2.78100        3.15800
C          8.52400       -2.79700        3.17800
C          9.03500       -3.76600        4.24700
C         10.56500       -3.80200        4.28900
C         11.08300       -4.75600        5.34100
O         12.43100       -4.81300        5.40400
O         10.37100       -5.42400        6.07700
H          0.66200        0.72900       -0.70700
H          2.72500        1.14400        0.15500
H          2.72000       -0.17800       -1.04100
H          2.50900       -1.84300        0.82100
H          2.51100       -0.54500        1.99700
H          4.80300        0.15500        1.22900
H          4.80100       -1.15400        0.04500
H          4.57400       -2.82500        1.89300
H          4.57400       -1.51500        3.07700
H          6.84800       -0.80900        2.29700
H          6.84800       -2.11700        1.11100
H          6.62300       -3.79100        2.95700
H          6.62100       -2.48400        4.14300
H          8.90400       -1.78900        3.38200
H          8.90600       -3.09600        2.19500
H          8.64000       -4.77100        4.04500
H          8.63700       -3.46900        5.22700
H         10.94500       -2.80000        4.51900
H         10.94700       -4.12600        3.31500
H         12.90400       -4.24000        4.77200
