21
1679-64-7.pdb
C          1.08300        1.23100        0.26000
O          2.51100        1.19100        0.23400
C          3.05500        0.36700        1.16400
O          2.44600       -0.31300        1.97400
C          4.53700        0.44700        1.11500
C          5.22300        0.85600       -0.03500
C          6.61900        0.93300       -0.02500
C          7.34000        0.60100        1.13100
C          6.65400        0.20000        2.28400
C          5.25800        0.11000        2.27000
C          8.81800        0.74900        1.09400
O          9.48300       -0.10400        1.90000
O          9.38000        1.55300        0.36900
H          0.74900        1.89300       -0.54400
H          0.72900        1.63700        1.21300
H          0.66800        0.23400        0.08400
H          4.68400        1.12000       -0.94200
H          7.14500        1.26500       -0.92000
H          7.17800       -0.01100        3.21300
H          4.72800       -0.20000        3.17000
H          8.94700       -0.81800        2.29000
