37
16798-45-1.pdb
C          3.99200       -2.22000        0.14700
C          4.93600       -1.03800        0.11500
O          4.85100       -0.35300       -1.14400
C          4.33800        0.90800       -1.08200
O          3.50700        1.26700       -0.25800
C          4.87500        1.77100       -2.19100
C          4.45200        3.21300       -1.98600
O          5.14900        3.97600       -1.31700
N          3.25600        3.57000       -2.59300
C          2.71900        4.88100       -2.62600
C          3.47400        6.02900       -2.36700
C          2.88000        7.29300       -2.37400
C          1.52300        7.42400       -2.64900
C          0.76500        6.29200       -2.93900
C          1.36200        5.02700       -2.93900
C          6.38600        1.71700       -2.24400
O          7.10600        1.09400       -1.47500
O          6.85900        2.51000       -3.25300
C          8.23700        2.89400       -3.11400
C          8.32500        4.10500       -2.19800
H          4.07400       -2.74400        1.10400
H          4.22700       -2.92400       -0.65700
H          2.95600       -1.89800        0.00700
H          5.96900       -1.39200        0.20700
H          4.75300       -0.37000        0.96400
H          4.47800        1.39000       -3.14100
H          2.62700        2.82700       -2.87200
H          4.53900        5.97700       -2.16200
H          3.48300        8.17100       -2.15400
H          1.05900        8.40700       -2.63300
H         -0.29600        6.39400       -3.15500
H          0.74200        4.16100       -3.15700
H          8.61000        3.15300       -4.11000
H          8.85400        2.06800       -2.74100
H          7.73100        4.93200       -2.60300
H          9.35900        4.43700       -2.07800
H          7.91600        3.88000       -1.20700
