16
1681-37-4.pdb
N         -2.39300        0.08900        0.19600
C         -1.01700       -0.01400       -0.00900
C         -0.27000        1.17200        0.00800
C          1.12100        1.13700       -0.01300
N          1.75700       -0.04400       -0.02500
C          1.09400       -1.21500       -0.01200
C         -0.30300       -1.22400        0.01200
N         -0.96400       -2.52900        0.02600
O         -2.19700       -2.56900       -0.03400
O         -0.22200       -3.51900        0.06800
H         -2.86700        0.92900       -0.13100
H         -2.94600       -0.75400       -0.00500
H         -0.77500        2.13600        0.05800
H          1.73700        2.03100       -0.00300
H          2.78100       -0.05300       -0.02900
H          1.71500       -2.10700       -0.01200
