32
168466-84-0.pdb
N          0.87400        0.12700        0.24900
C          2.33500        0.06800        0.12600
C          2.82200        1.16600       -0.82400
C          2.43700        0.85100       -2.26500
C          2.92800       -0.53700       -2.68400
N          2.46300       -1.60500       -1.78200
C          2.83000       -1.31200       -0.38200
C          3.00300       -2.92200       -2.16800
C          2.61400       -3.36700       -3.56300
C          3.59900       -3.58700       -4.53800
C          3.24100       -3.96700       -5.83300
C          1.89800       -4.13900       -6.16200
C          0.91200       -3.93500       -5.19800
C          1.26800       -3.55300       -3.90300
H          0.59400        0.99600        0.69800
H          0.54000       -0.64100        0.82600
H          2.76000        0.24300        1.12100
H          3.91500        1.24300       -0.75300
H          2.42100        2.14400       -0.53100
H          2.86900        1.60600       -2.93100
H          1.34800        0.91100       -2.38600
H          4.02500       -0.52900       -2.73500
H          2.55700       -0.71200       -3.70000
H          3.92300       -1.34700       -0.26700
H          2.42000       -2.09000        0.27400
H          2.63000       -3.68900       -1.47500
H          4.09700       -2.92700       -2.06900
H          4.65100       -3.44800       -4.30000
H          4.00900       -4.12400       -6.58400
H          1.61800       -4.42500       -7.17300
H         -0.13700       -4.06300       -5.45500
H          0.49300       -3.37700       -3.16100
