36
1684-14-6.pdb
C          1.43600        0.50100       -0.70100
C          1.22500       -0.54800       -1.58600
C         -0.08000       -0.91900       -1.93600
C         -1.21800       -0.30500       -1.35400
C         -0.96800        0.81500       -0.52900
C          0.34200        1.20300       -0.19900
C         -2.56900       -1.09300       -1.31400
N         -2.24400       -2.40100       -1.17600
C         -1.80300       -2.67000        0.06400
C         -0.72900       -3.52700        0.20400
C          0.12700       -3.38000        1.28800
C         -0.18000       -2.45400        2.28500
C         -1.38200       -1.74500        2.24100
C         -2.19500       -1.82200        1.12400
N         -3.21600       -0.95400        0.93700
C         -3.51400       -0.70400       -0.36900
C         -4.94300       -0.42700       -0.66800
C         -5.84800       -0.08700        0.35900
C         -7.21200        0.11800        0.10900
C         -7.70900       -0.01200       -1.18300
C         -6.84200       -0.34700       -2.21800
C         -5.47900       -0.55300       -1.96200
H          2.44400        0.75500       -0.38300
H          2.07000       -1.12600       -1.95300
H         -0.20700       -1.81000       -2.55200
H         -1.78200        1.32600       -0.01900
H          0.50600        2.01300        0.50900
H         -0.43800       -4.16000       -0.62100
H          1.07700       -3.90400        1.30100
H          0.54300       -2.23500        3.06400
H         -1.60500       -0.99800        2.99600
H         -5.50000       -0.00400        1.38700
H         -7.88500        0.36200        0.92700
H         -8.76700        0.13400       -1.38000
H         -7.22500       -0.47700       -3.22800
H         -4.84700       -0.85000       -2.79800
