28
168618-45-9.pdb
C          1.29100        0.34500        0.77200
O          2.39700       -0.00200       -0.05100
C          2.97200        1.02000       -0.76000
C          2.49400        2.32600       -0.83300
C          3.17200        3.27000       -1.60000
C          4.33400        2.91300       -2.28600
C          4.86100        1.61100       -2.21400
C          4.14100        0.67300       -1.44900
C          6.13100        1.25900       -2.89600
C          6.36900       -0.02800       -3.41100
C          7.57400       -0.34800       -4.04400
C          8.56400        0.62100       -4.19500
C          8.37300        1.92000       -3.70800
C          7.16100        2.21000       -3.05000
C          9.43000        2.99000       -3.88700
O         10.48900        2.65800       -4.51200
O          9.18200        4.14000       -3.40900
H          0.97900       -0.55300        1.31300
H          0.44200        0.68100        0.16800
H          1.57300        1.09900        1.51400
H          1.60100        2.64400       -0.30700
H          2.80500        4.29100       -1.66200
H          4.83500        3.67500       -2.88200
H          4.50700       -0.34700       -1.35500
H          5.61000       -0.80200       -3.33600
H          7.74000       -1.35000       -4.42800
H          9.49800        0.37700       -4.69800
H          7.04800        3.21600       -2.64800
