22
1687-64-5.pdb
C          2.27700        0.56000       -1.26900
C          2.46100       -0.02600        0.12300
C          3.03000       -1.42500        0.09700
C          2.16000       -2.52400        0.06800
C          2.66300       -3.82400        0.06800
C          4.04000       -4.04100        0.09000
C          4.93600       -2.96300        0.10300
C          6.41100       -3.24100        0.13100
C          4.41400       -1.65900        0.09900
O          5.23200       -0.56000        0.10300
H          1.88200        1.57900       -1.19800
H          1.57200       -0.03400       -1.86000
H          3.22500        0.60200       -1.81500
H          1.49500       -0.03500        0.64300
H          3.10500        0.63100        0.72000
H          1.08400       -2.37100        0.05600
H          1.97900       -4.67000        0.05600
H          4.40800       -5.06600        0.09800
H          6.62100       -4.31600        0.14600
H          6.86100       -2.80600        1.03000
H          6.89200       -2.82300       -0.75900
H          6.15800       -0.84500        0.10400
