25
1689-82-3.pdb
O         -2.56100        0.16900       -0.65800
C         -1.34600        0.11400       -0.52300
C         -0.62800       -1.17000       -0.58000
C          0.69900       -1.24200       -0.42900
C          1.53000       -0.02800       -0.18000
C          0.78400        1.25800       -0.13300
C         -0.54100        1.32600       -0.30100
N          2.81700        0.03000       -0.01700
N          3.54500       -1.11000       -0.11300
C          4.92800       -1.07200        0.17700
C          5.60700        0.10400        0.51400
C          6.98900        0.09800        0.73000
C          7.71700       -1.07900        0.57800
C          7.06300       -2.25000        0.20400
C          5.68300       -2.24300        0.00000
H         -1.23400       -2.05000       -0.75600
H          1.19100       -2.20200       -0.49100
H          1.37800        2.15100        0.02500
H         -1.07700        2.26800       -0.28400
H          3.13400       -2.01000        0.11100
H          5.05700        1.03500        0.62500
H          7.49600        1.01900        1.01000
H          8.79200       -1.08100        0.73700
H          7.62900       -3.16800        0.06100
H          5.19500       -3.16200       -0.31700
