27
1693-86-3.pdb
C          5.03100        1.03700       -2.77000
C          4.53600        0.51000       -1.43100
C          5.04300       -0.91100       -1.19300
C          4.60300       -1.46600        0.16300
C          5.08700       -2.90300        0.39800
C          6.61400       -3.02200        0.43500
C          7.08200       -4.43400        0.62700
C          7.37100       -5.01400        1.84700
S          7.91600       -6.62800        1.70000
C          7.77200       -6.57800       -0.00200
C          7.31500       -5.35800       -0.44500
H          4.67800        2.05800       -2.93500
H          4.66900        0.41200       -3.59300
H          6.12600        1.04600       -2.80600
H          3.44100        0.52900       -1.41200
H          4.89100        1.17100       -0.63100
H          6.13600       -0.89500       -1.25600
H          4.68200       -1.56900       -1.99200
H          3.50700       -1.45400        0.22000
H          4.97000       -0.82000        0.96900
H          4.67700       -3.55700       -0.38200
H          4.67100       -3.26000        1.35000
H          7.01400       -2.38700        1.23500
H          7.05000       -2.65500       -0.50000
H          7.29500       -4.56300        2.82700
H          8.03300       -7.44300       -0.59700
H          7.16300       -5.13100       -1.49400
