25
16930-95-3.pdb
C          0.95500        0.29600       -1.77400
C          2.47500        0.28300       -1.77800
C          3.01200       -0.90800       -0.99000
C          4.53900       -0.94300       -0.97600
C          5.00300       -2.10800       -0.20800
C          5.33400       -3.06100        0.44300
C          5.71400       -4.19200        1.25600
O          6.61300       -4.10200        2.07900
O          4.96900       -5.29800        0.99200
C          5.28900       -6.45500        1.77600
C          6.48400       -7.18300        1.18800
H          0.57900        1.14700       -2.34900
H          0.56800        0.37600       -0.75200
H          0.55500       -0.62100       -2.22000
H          2.84700        1.21900       -1.34400
H          2.83400        0.23800       -2.81300
H          2.62800       -1.83800       -1.42800
H          2.63400       -0.86700        0.04000
H          4.93200       -0.02100       -0.53000
H          4.92300       -0.99400       -2.00100
H          4.41400       -7.11300        1.75400
H          5.46000       -6.18500        2.82600
H          6.29000       -7.46000        0.14700
H          6.70900       -8.08800        1.75900
H          7.37300       -6.54500        1.18600
