44
169447-86-3.pdb
C          3.08400       -0.46000       -0.86600
C          2.12100        0.35100        0.01500
C          1.45700        1.50200       -0.74900
C          1.00400       -0.60100        0.47700
O          2.80400        0.81500        1.21500
C          3.83600        1.70000        1.07300
O          4.11100        2.24900        0.01300
N          4.58100        1.88200        2.23400
C          3.91100        1.83300        3.53900
C          3.49300        3.25800        3.98600
N          4.57800        4.26200        3.92000
C          5.23600        4.22600        2.59300
C          5.73800        2.80300        2.23500
C          6.64300        2.85100        0.98000
C          7.26300        1.54400        0.54300
C          7.00200        1.03700       -0.73900
C          7.64600       -0.11400       -1.19700
C          8.55800       -0.77300       -0.37700
C          8.81100       -0.29100        0.90600
C          8.16700        0.86000        1.36500
H          2.57500       -0.86900       -1.74500
H          3.51600       -1.29500       -0.29900
H          3.92800        0.13700       -1.22300
H          0.83500        1.13000       -1.57000
H          2.17500        2.19600       -1.19200
H          0.82400        2.09500       -0.07600
H          0.48900       -1.05200       -0.38100
H          0.25700       -0.07100        1.07700
H          1.39900       -1.40800        1.10300
H          4.62300        1.41300        4.26000
H          3.03200        1.18300        3.52100
H          3.12100        3.22200        5.01600
H          2.66300        3.60900        3.36200
H          5.27600        4.03200        4.62800
H          6.07500        4.93100        2.60900
H          4.53000        4.58800        1.83500
H          6.37700        2.45800        3.06100
H          7.47800        3.53400        1.18800
H          6.12300        3.32600        0.13900
H          6.29800        1.54400       -1.39600
H          7.44200       -0.48700       -2.19700
H          9.07500       -1.65700       -0.74000
H          9.52500       -0.80400        1.54500
H          8.39600        1.22900        2.36100
