25
1694-31-1.pdb
C          3.02500       -1.39800       -3.08100
C          2.84500       -1.51300       -1.58800
O          2.08600       -0.75500       -0.98200
C          3.56500       -2.62000       -0.87400
C          5.04400       -2.58000       -1.08500
O          5.58000       -3.06100       -2.07300
O          5.67100       -1.92400       -0.07300
C          7.11800       -1.78100       -0.08000
C          7.58800       -0.94700       -1.27800
C          7.47100       -1.01700        1.20600
C          7.80000       -3.15300       -0.02200
H          2.39800       -0.58700       -3.46200
H          2.72000       -2.33100       -3.56200
H          4.06600       -1.16900       -3.32100
H          3.18700       -3.58300       -1.23600
H          3.34000       -2.58400        0.19700
H          7.08700        0.02800       -1.29100
H          7.35900       -1.42500       -2.23400
H          8.67000       -0.78000       -1.24500
H          6.98500       -0.03400        1.22700
H          8.55300       -0.86700        1.30100
H          7.11900       -1.55600        2.09300
H          7.59800       -3.75500       -0.91300
H          7.43100       -3.73000        0.83300
H          8.88700       -3.05400        0.06800
