20
1696-20-4.pdb
C          1.20400       -0.46000        0.13100
C          2.52100        0.26800        0.06800
O          2.94700        0.68100       -1.01200
N          3.18400        0.48300        1.25900
C          2.75200        0.04200        2.59100
C          2.65600        1.24300        3.54100
O          3.88400        1.98700        3.57000
C          4.22800        2.46300        2.25600
C          4.40400        1.29400        1.28100
H          0.85700       -0.66400       -0.88700
H          0.46200        0.16500        0.63300
H          1.31300       -1.41900        0.64300
H          3.51800       -0.65400        2.95000
H          1.80000       -0.48900        2.56200
H          2.45200        0.89700        4.55900
H          1.84200        1.91400        3.24300
H          5.16100        3.02900        2.33900
H          3.44500        3.15000        1.91200
H          5.21400        0.63900        1.62200
H          4.66000        1.66700        0.28500
