28
1700-37-4.pdb
O          4.58800        0.69700        5.40400
C          3.60700        0.77100        4.67800
C          3.69300        1.26800        3.28900
C          2.54700        1.36500        2.50000
C          2.65200        1.86900        1.20300
C          3.88800        2.30700        0.71600
C          5.02500        2.24600        1.52300
O          6.17300        2.79100        1.00500
C          7.11900        3.18900        2.00200
C          8.07700        4.21900        1.46500
C          8.08200        5.51700        2.00200
C          9.01700        6.45600        1.57300
C          9.95000        6.10900        0.60000
C          9.94600        4.82700        0.05000
C          9.01100        3.88500        0.47700
C          4.93100        1.67600        2.79300
H          2.60600        0.48000        5.03700
H          1.57800        1.05900        2.88200
H          1.76700        1.94400        0.57400
H          3.95800        2.72400       -0.28700
H          7.69200        2.31600        2.33800
H          6.60600        3.62900        2.86900
H          7.36500        5.79800        2.77000
H          9.02100        7.45300        2.00500
H         10.68800        6.83800        0.27200
H         10.67700        4.55800       -0.70800
H          9.01900        2.88500        0.05000
H          5.80600        1.56100        3.42800
