20
17016-83-0.pdb
C          0.88900        0.07800       -0.01000
C          2.41800        0.08300       -0.08300
C          2.95400        1.34900        0.59700
C          3.02900       -1.18000        0.54400
C          2.56200       -2.49100       -0.06700
O          3.69800       -3.36200        0.02800
C          4.80700       -2.58800        0.21000
O          5.94900       -3.00400        0.27100
N          4.44200       -1.27800        0.35000
H          0.47900        0.99500       -0.44800
H          0.54000        0.01400        1.02600
H          0.46500       -0.76400       -0.56500
H          2.70700        0.13000       -1.14100
H          2.67600        1.37800        1.65600
H          2.55000        2.24600        0.11600
H          4.04500        1.40700        0.53100
H          2.85600       -1.19800        1.62800
H          2.29000       -2.40600       -1.12500
H          1.72300       -2.92600        0.48500
H          5.13200       -0.65100        0.74300
