21
17028-61-4.pdb
C          1.08300       -0.03600        0.02500
O          2.50400       -0.06200        0.01600
C          3.16900        1.13500        0.00200
C          2.54900        2.38800        0.00000
C          3.33100        3.55400       -0.02000
C          4.73000        3.48700       -0.04000
C          5.34700        2.23500       -0.03600
C          6.82200        2.18400       -0.05700
O          7.41400        1.11000       -0.04600
C          4.57400        1.06400       -0.01300
O          5.15500       -0.18100       -0.00300
N          2.67100        4.86700       -0.01800
O          1.43300        4.89100        0.00300
O          3.39700        5.87000       -0.03800
H          0.72800       -1.07100        0.01700
H          0.69000        0.45600       -0.87000
H          0.70500        0.43900        0.93600
H          1.46600        2.47200        0.01500
H          5.33000        4.39500       -0.05700
H          7.36300        3.14400       -0.08200
H          6.13300       -0.07900       -0.00700
