38
170844-49-2.pdb
C          6.46300        0.64500        0.42400
C          5.37500       -0.40600        0.56200
O          5.27400       -1.09400       -0.69200
C          4.42900       -0.53300       -1.60400
O          3.57400        0.30400       -1.35300
C          4.83900       -0.96900       -2.99100
C          4.00800       -0.32400       -4.10600
C          2.93500       -1.35300       -4.42000
N          3.59900       -2.61200       -4.15600
C          4.67200       -2.46700       -3.19400
C          3.32900       -3.83300       -4.71700
O          3.93000       -4.84600       -4.38100
O          2.37700       -3.77400       -5.68400
C          2.08600       -4.97100       -6.46100
C          1.48400       -6.07100       -5.58000
C          1.03200       -4.55300       -7.49800
C          3.33000       -5.45200       -7.22600
H          6.61000        1.19300        1.35700
H          6.21600        1.35800       -0.37000
H          7.41000        0.17400        0.13500
H          4.42200        0.03800        0.86900
H          5.65800       -1.14100        1.32300
H          5.89000       -0.66700       -3.10000
H          4.64700       -0.19000       -4.98800
H          3.58500        0.65300       -3.85200
H          2.56800       -1.29200       -5.44700
H          2.09300       -1.27000       -3.72500
H          5.58000       -2.91300       -3.61500
H          4.40900       -3.01700       -2.28300
H          0.59700       -5.70100       -5.05400
H          2.17800       -6.41700       -4.80900
H          1.19600       -6.94400       -6.17500
H          0.12500       -4.17900       -7.00900
H          0.75300       -5.39200       -8.14500
H          1.40300       -3.73900       -8.13100
H          4.13000       -5.78600       -6.56100
H          3.74900       -4.64000       -7.83200
H          3.08900       -6.29000       -7.88900
