22
1708-81-2.pdb
C          0.84800       -1.15400        0.51300
C          2.36600       -1.22900        0.48300
C          2.90600       -0.89600       -0.90700
C          4.40000       -1.04800       -0.97000
C          5.08400       -1.89300       -1.75700
C          4.50200       -2.90200       -2.71300
C          4.23400       -2.31200       -4.09700
O          5.44800       -1.94100       -4.74100
H          0.47600       -1.37300        1.51900
H          0.40800       -1.88200       -0.17700
H          0.49700       -0.15700        0.22800
H          2.68200       -2.23600        0.78200
H          2.77600       -0.52900        1.22200
H          2.65500        0.14100       -1.16100
H          2.40800       -1.52400       -1.65300
H          4.96800       -0.38000       -0.32200
H          6.17300       -1.87700       -1.70300
H          3.57800       -3.32600       -2.30500
H          5.21400       -3.73200       -2.79800
H          3.58000       -1.43500       -4.04700
H          3.74300       -3.06000       -4.72700
H          5.83600       -1.22100       -4.21300
