28
17094-34-7.pdb
C          5.88600       -0.50800       -1.69900
C          4.44300       -0.08300       -1.49400
O          4.44500        1.24400       -0.95300
C          4.49600        1.31800        0.40600
O          4.25100        0.41000        1.18600
C          4.96600        2.67900        0.82200
C          6.47700        2.77500        0.84600
O          7.17900        1.81000        0.54200
C          7.11800        4.11700        1.25300
C          6.73600        4.46300        2.69700
C          8.64900        4.00000        1.16600
C          6.65900        5.22500        0.29700
H          5.94700       -1.50600       -2.14200
H          6.42900       -0.51200       -0.74900
H          6.40200        0.20400       -2.35200
H          3.90300       -0.79000       -0.85400
H          3.92200       -0.04700       -2.45500
H          4.56200        2.87600        1.82200
H          4.54500        3.41900        0.13600
H          7.06700        3.68200        3.39000
H          5.65400        4.57100        2.82000
H          7.19500        5.40800        3.01100
H          9.03200        3.23700        1.85400
H          9.13900        4.94800        1.41500
H          8.97100        3.71600        0.15500
H          5.58000        5.40000        0.36300
H          6.88700        4.96700       -0.74300
H          7.15500        6.17500        0.52600
