31
171058-17-6.pdb
C          0.90800        0.07300        0.07400
C          2.42700        0.05400        0.08500
C          2.97200       -1.01600       -0.85800
C          4.50000       -1.04000       -0.85200
C          5.02100       -2.11400       -1.80100
C          6.54400       -2.16700       -1.82200
N          6.99200       -3.21300       -2.74400
C          7.26200       -3.05300       -4.09400
C          7.53900       -4.29700       -4.58800
N          7.44000       -5.18000       -3.52500
C          7.59900       -6.62700       -3.58200
C          7.14500       -4.50200       -2.40700
H          0.53300        0.84400        0.75400
H          0.50200       -0.89200        0.39700
H          0.52600        0.28700       -0.92900
H          2.78000       -0.13500        1.10600
H          2.80400        1.04000       -0.21300
H          2.61100       -0.82600       -1.87700
H          2.58800       -1.99900       -0.55900
H          4.86300       -1.23600        0.16400
H          4.88800       -0.05900       -1.15300
H          4.65000       -1.92400       -2.81600
H          4.62700       -3.09400       -1.50500
H          6.94200       -2.39500       -0.82600
H          6.96900       -1.20900       -2.14200
H          7.19700       -2.07300       -4.53200
H          7.78100       -4.67100       -5.56800
H          7.82600       -6.94400       -4.60300
H          6.66600       -7.09500       -3.25600
H          8.41300       -6.92100       -2.91600
H          7.02200       -4.92400       -1.41600
