25
17138-28-2.pdb
C          2.51300       -1.27400        1.67400
C          2.55700       -0.42700        0.41500
O          3.11100       -1.22800       -0.63600
C          4.47600       -1.22500       -0.71200
O          5.20500       -0.42800       -0.14000
C          4.91200       -2.41600       -1.53400
C          6.40700       -2.60400       -1.60300
C          7.09500       -3.23700       -0.55600
C          8.47700       -3.41500       -0.62100
C          9.17100       -2.95500       -1.73500
O         10.51900       -3.11800       -1.84800
C          8.51000       -2.30600       -2.77200
C          7.13000       -2.12700       -2.70600
H          2.08900       -0.71800        2.51300
H          3.51700       -1.61900        1.94800
H          1.91300       -2.17500        1.50300
H          3.12200        0.50000        0.57000
H          1.54200       -0.14500        0.11700
H          4.49800       -2.32200       -2.54400
H          4.47400       -3.31500       -1.08000
H          6.55700       -3.59000        0.32100
H          8.99200       -3.90600        0.19800
H         10.83700       -3.60700       -1.07100
H          9.07000       -1.93900       -3.62700
H          6.62400       -1.61200       -3.51800
