23
17136-36-6.pdb
O          3.11800       -1.17400       -0.67200
C          2.35700       -0.21700       -0.08000
O          1.20800        0.02500       -0.40900
C          3.09900        0.47200        1.06000
N          4.56300        0.31200        0.85600
C          5.28000        0.91300        1.99100
C          6.77600        0.82400        1.80600
C          7.56000        1.98600        1.74000
C          8.94700        1.89800        1.60500
C          9.56500        0.65200        1.53200
C          8.79700       -0.50800        1.59100
C          7.41100       -0.42400        1.72900
H          3.99800       -1.15800       -0.22000
H          2.78800       -0.01400        1.99200
H          2.82700        1.53100        1.06800
H          4.82900        0.85400        0.02600
H          5.01800        0.40200        2.92600
H          4.98400        1.96400        2.10000
H          7.09900        2.96900        1.80300
H          9.54700        2.80400        1.56200
H         10.64500        0.58500        1.43000
H          9.27800       -1.48200        1.53400
H          6.82400       -1.33800        1.78100
