26
17159-79-4.pdb
C          4.04800        1.38800       -2.71300
C          4.56600        1.12400       -1.31000
O          5.19700       -0.16400       -1.31300
C          4.36200       -1.21600       -1.09200
O          3.23700       -1.14100       -0.61900
C          5.00800       -2.49500       -1.59500
C          3.95600       -3.48700       -2.10900
C          3.18600       -4.20500       -1.00600
C          4.11300       -4.72600        0.06800
O          3.95800       -5.84000        0.56600
C          5.15200       -3.76400        0.59700
C          5.92100       -3.12600       -0.54800
H          3.55500        2.36100       -2.77900
H          3.34000        0.61100       -3.02000
H          4.87500        1.35800       -3.43200
H          3.76400        1.18900       -0.56500
H          5.32400        1.86600       -1.04200
H          5.61700       -2.20800       -2.46600
H          4.46700       -4.23900       -2.72100
H          3.24400       -2.97700       -2.77100
H          2.63600       -5.04700       -1.43800
H          2.45400       -3.54400       -0.52900
H          5.84400       -4.31300        1.24400
H          4.64600       -3.00800        1.20800
H          6.52700       -3.90300       -1.04200
H          6.62500       -2.38600       -0.14900
