28
17159-80-7.pdb
C          4.80400       -1.54400        2.13000
C          4.78800       -1.01500        0.70900
O          5.22700        0.34800        0.74300
C          4.25100        1.27200        0.97200
O          3.05000        1.07300        0.84700
C          4.88000        2.55100        1.49500
C          3.93600        3.27600        2.46400
C          2.85700        4.10200        1.76900
C          3.44700        5.02300        0.70500
O          2.40200        5.71800        0.03600
C          4.26800        4.23600       -0.31400
C          5.38300        3.44300        0.36000
H          4.50300       -2.59200        2.17100
H          4.13600       -0.95900        2.77300
H          5.80800       -1.44700        2.56000
H          3.79700       -1.12100        0.25200
H          5.49500       -1.57800        0.09100
H          5.74500        2.23000        2.09200
H          4.53500        3.94800        3.09200
H          3.45900        2.55800        3.14400
H          2.31100        4.69700        2.51000
H          2.10500        3.44600        1.31600
H          4.08200        5.77600        1.18500
H          1.83200        5.05800       -0.39400
H          4.69600        4.92500       -1.05300
H          3.61500        3.56100       -0.88100
H          6.11300        4.15100        0.77300
H          5.91300        2.85000       -0.39500
