34
1720-32-7.pdb
C          1.02500        0.09800        0.05800
C          0.30700       -0.98800        0.38400
C         -1.13800       -1.00000        0.36300
C         -1.86800       -2.08900        0.65300
C         -3.33900       -2.13800        0.59100
C         -4.07300       -1.37200       -0.32600
C         -5.46500       -1.47300       -0.38900
C         -6.13800       -2.35200        0.45500
C         -5.42100       -3.13200        1.35900
C         -4.02800       -3.02800        1.42400
C          2.47000        0.09600        0.03400
C          3.20000        1.16500       -0.32400
C          4.67000        1.17100       -0.40300
C          5.40500        0.02700       -0.74600
C          6.79600        0.07600       -0.85400
C          7.47000        1.27400       -0.63400
C          6.75300        2.42400       -0.30900
C          5.36000        2.37300       -0.19800
H          0.52300        1.02100       -0.22400
H          0.80900       -1.91400        0.65600
H         -1.62700       -0.06900        0.08600
H         -1.38000       -3.01300        0.95400
H         -3.57200       -0.69600       -1.01500
H         -6.01900       -0.86900       -1.10300
H         -7.22100       -2.43500        0.40100
H         -5.94400       -3.82500        2.01300
H         -3.48700       -3.64800        2.13600
H          2.95900       -0.83400        0.31500
H          2.71100        2.10200       -0.58100
H          4.90300       -0.91600       -0.94800
H          7.35000       -0.82200       -1.11700
H          8.55200        1.31300       -0.72400
H          7.27700        3.36100       -0.14500
H          4.82100        3.28300        0.05500
