24
1720-38-3.pdb
C          1.00300        0.05200        0.08500
C          2.30700        0.05300        0.08500
C          3.82700        0.05500        0.08400
C          4.33100       -0.31500       -1.29500
C          5.85000       -0.31700       -1.30300
C          6.36400       -0.68500       -2.68300
C          7.88500       -0.68500       -2.69100
C          8.43900       -1.05400       -4.07400
C          9.93800       -1.05200       -4.07300
C         11.16500       -1.05000       -4.07100
H         -0.06300        0.05000        0.08500
H          4.18300       -0.66200        0.83200
H          4.18100        1.05200        0.37100
H          3.95400        0.39900       -2.03600
H          3.95400       -1.30400       -1.57900
H          6.22400       -1.03400       -0.56300
H          6.22400        0.67400       -1.01900
H          5.98800        0.03200       -3.42200
H          5.99100       -1.67600       -2.96500
H          8.26000       -1.39900       -1.95000
H          8.25800        0.30400       -2.40500
H          8.03300       -0.33600       -4.81600
H          8.03500       -2.04800       -4.35800
H         12.23800       -1.04800       -4.07100
