30
17216-62-5.pdb
C          6.26800        1.03100        0.28500
C          5.02000        0.43300        0.91200
O          5.02400       -0.97500        0.64000
C          4.43300       -1.34000       -0.53300
O          3.66200       -0.64300       -1.17700
C          4.89400       -2.71800       -0.93800
C          4.33200       -3.07100       -2.33000
C          4.78100       -4.42300       -2.87800
C          4.34400       -5.55900       -1.96800
N          3.98200       -6.50200       -1.21300
C          6.40000       -2.73400       -0.98000
O          7.06800       -2.05700       -1.75300
O          6.90700       -3.61600       -0.07800
C          8.34100       -3.67700       -0.01200
C          8.87600       -2.55900        0.86500
H          6.30200        2.11300        0.42200
H          6.31000        0.80800       -0.78800
H          7.16300        0.58600        0.73000
H          4.11200        0.92300        0.54300
H          5.04500        0.56300        1.99800
H          4.51700       -3.42600       -0.19100
H          4.63000       -2.30100       -3.05400
H          3.23500       -3.04500       -2.29000
H          5.86800       -4.46100       -3.00200
H          4.33700       -4.58100       -3.86800
H          8.78100       -3.64500       -1.01500
H          8.60400       -4.64600        0.42400
H          8.58900       -1.57700        0.47600
H          9.96700       -2.60200        0.92700
H          8.46100       -2.63300        1.87500
