35
172354-89-1.pdb
C          3.99600        6.32800       -4.32500
C          3.78200        5.30700       -3.22100
C          4.63000        4.03300       -3.38400
C          4.34700        3.09300       -2.20200
C          5.08100        1.73400       -2.19000
C          4.55300        0.85200       -1.03800
C          4.90400        1.37800        0.35300
C          6.60000        1.85500       -2.10400
O          7.21300        2.90100       -1.98900
O          7.17300        0.62200       -2.24500
C          8.55700        0.61600       -2.62600
C          9.46100        0.07400       -1.52400
C         10.91000        0.05500       -1.99300
H          3.37600        7.21300       -4.13800
H          3.71300        5.92100       -5.30000
H          5.03900        6.65300       -4.36900
H          2.72000        5.03700       -3.19200
H          4.01800        5.77900       -2.26000
H          5.68900        4.30800       -3.41800
H          4.38900        3.54000       -4.33300
H          3.26800        2.88600       -2.20000
H          4.56700        3.63900       -1.27900
H          4.86100        1.23200       -3.14300
H          3.46200        0.76200       -1.11800
H          4.95100       -0.16400       -1.13200
H          4.50900        2.38300        0.51900
H          5.98600        1.40100        0.51000
H          4.47100        0.72600        1.11900
H          8.89600        1.60700       -2.94500
H          8.62300       -0.03800       -3.50200
H          9.14900       -0.93800       -1.24100
H          9.36900        0.68800       -0.62100
H         11.02700       -0.58300       -2.87700
H         11.57000       -0.32800       -1.21000
H         11.24700        1.06200       -2.25900
