27
17295-26-0.pdb
C          1.20200        0.66900       -0.58900
C          2.57100        0.18300       -0.21500
O          2.98700       -0.94400       -0.44100
O          3.27100        1.22700        0.38800
C          4.67700        1.14800        0.40900
C          5.38800        0.72100       -0.70900
C          6.78000        0.77000       -0.70300
C          7.47100        1.26700        0.40700
C          8.87300        1.34500        0.39500
C          9.56600        1.85200        1.49900
C          8.85400        2.31000        2.61200
C          7.45800        2.24100        2.63400
C          6.74800        1.71800        1.54000
C          5.34200        1.65400        1.52800
C         11.04500        1.98100        1.50600
O         11.69200        1.04400        0.78300
O         11.62500        2.84800        2.13800
H          0.70400       -0.09400       -1.19500
H          1.29200        1.57400       -1.19800
H          0.61100        0.86200        0.30500
H          4.87700        0.35800       -1.59600
H          7.31200        0.42800       -1.58700
H          9.41000        1.04600       -0.50400
H          9.38500        2.73300        3.46400
H          6.92900        2.61100        3.51000
H          4.76500        2.01400        2.37500
H         11.14300        0.29900        0.47600
