20
17302-46-4.pdb
C          1.25100       -1.29800        0.15400
O          2.65100       -1.04600        0.11400
C          3.14000       -0.58000        1.29700
O          2.51400       -0.47300        2.34200
C          4.61700       -0.52100        1.20000
C          5.27500       -1.70200        1.58500
C          6.66500       -1.73700        1.57800
C          7.39500       -0.61200        1.20200
C          6.71000        0.54900        0.81800
C          5.30200        0.65400        0.79100
O          4.73500        1.73800        0.42900
N          7.36200       -2.96300        1.97200
O          6.67600       -3.95100        2.27900
O          8.60200       -2.95400        1.97600
H          0.93000       -1.60600       -0.84500
H          0.69800       -0.39500        0.43200
H          1.03000       -2.11500        0.84900
H          4.68300       -2.56300        1.88300
H          8.48100       -0.60500        1.19700
H          7.29500        1.42500        0.53000
