38
1731-86-8.pdb
C          0.88200        0.03900        0.03400
C          2.40100        0.05100        0.03400
C          2.93800        1.40200       -0.43000
C          4.46500        1.41700       -0.43200
C          4.99700        2.77000       -0.89500
C          6.52300        2.78100       -0.89800
C          7.05500        4.13300       -1.36200
C          8.58200        4.15300       -1.36900
C          9.08800        5.51400       -1.83600
C         10.61100        5.58900       -1.86200
C         11.06100        6.95300       -2.33000
O         10.31600        7.87000       -2.64400
O         12.42100        7.01500       -2.35100
C         12.91800        8.28200       -2.78600
H          0.51100       -0.93500        0.36800
H          0.49000        0.22800       -0.97100
H          0.48600        0.80500        0.70700
H          2.77100       -0.74300       -0.62600
H          2.76600       -0.16900        1.04300
H          2.56500        2.19500        0.23100
H          2.56700        1.62200       -1.43900
H          4.84000        0.62700       -1.09500
H          4.83800        1.19900        0.57600
H          4.62300        3.56000       -0.23200
H          4.62300        2.99000       -1.90200
H          6.89600        1.99100       -1.56100
H          6.89600        2.56400        0.11000
H          6.67800        4.92300       -0.70000
H          6.67800        4.35000       -2.36900
H          8.96100        3.36800       -2.03300
H          8.96100        3.94100       -0.36200
H          8.69400        6.29600       -1.17400
H          8.69400        5.72500       -2.83900
H         11.01300        4.83500       -2.54700
H         11.01300        5.41400       -0.85700
H         14.01000        8.24400       -2.77200
H         12.59000        9.07500       -2.10600
H         12.59000        8.49100       -3.80900
