44
1731-79-9.pdb
C          1.01100        0.04500        0.04000
O          2.44000        0.06000        0.03500
C          2.95800        1.18500       -0.53200
O          2.29500        2.10100       -0.99300
C          4.46800        1.13400       -0.50600
C          5.04900        2.39400       -1.14300
C          6.57300        2.39400       -1.14600
C          7.09800        3.67500       -1.79100
C          8.62200        3.70000       -1.80400
C          9.13700        4.98200       -2.45200
C         10.66000        5.00700       -2.46300
C         11.18600        6.28800       -3.11000
C         12.71000        6.29000       -3.10800
C         13.29100        7.54900       -3.74500
C         14.80100        7.49900       -3.71700
O         15.46500        6.58200       -3.25400
O         15.31900        8.62400       -4.28500
C         16.74800        8.63800       -4.29100
H          0.67900       -0.88500        0.50900
H          0.62500        0.07500       -0.98400
H          0.62200        0.88600        0.62400
H          4.79900        0.24800       -1.05900
H          4.79900        1.05300        0.53500
H          4.68500        3.27700       -0.60300
H          4.68300        2.48400       -2.17400
H          6.94500        1.52200       -1.69600
H          6.94800        2.31600       -0.11800
H          6.72100        4.54700       -1.24300
H          6.72100        3.75300       -2.81800
H          9.00100        2.82900       -2.35300
H          9.00100        3.62600       -0.77700
H          8.75600        5.85200       -1.90300
H          8.75900        5.05500       -3.47900
H         11.03900        4.13500       -3.00900
H         11.03700        4.93100       -1.43500
H         10.81100        7.16000       -2.56200
H         10.81300        6.36200       -4.13800
H         13.07600        5.40600       -3.64700
H         13.07400        6.20100       -2.07700
H         12.95800        8.43600       -3.19300
H         12.96100        7.62900       -4.78700
H         17.08000        9.56800       -4.76000
H         17.13600        7.79700       -4.87600
H         17.13500        8.60700       -3.26700
