15
17345-61-8.pdb
O          1.15000       -0.02700        0.09500
C          2.50800        0.00500       -0.04000
C          3.18200        1.22400       -0.09800
C          4.57000        1.23600       -0.26000
C          5.28000        0.03200       -0.36300
C          4.59900       -1.19000       -0.28800
C          3.21400       -1.19600       -0.13000
O          2.53000       -2.37800       -0.07500
C          6.70100        0.05000       -0.55900
N          7.84700        0.06300       -0.73000
H          0.79900        0.87600        0.04400
H          2.64700        2.16400       -0.01900
H          5.09300        2.19000       -0.31300
H          5.15200       -2.12300       -0.35800
H          3.14000       -3.11800       -0.22100
