20
1734-79-8.pdb
O          1.41000        0.72400       -0.23500
N          2.38900       -0.01100       -0.03800
O          2.77500       -0.38100        1.08000
C          3.13900       -0.47800       -1.21000
C          2.73800       -0.08600       -2.49000
C          3.44200       -0.54800       -3.60700
C          4.55200       -1.39600       -3.46300
C          5.26200       -1.95800       -4.62600
C          5.37600       -1.33100       -5.80700
C          6.06700       -1.96800       -6.95100
O          6.17000       -1.39000       -8.02500
C          4.94200       -1.77800       -2.17000
C          4.24500       -1.32200       -1.04300
H          1.87800        0.56400       -2.63800
H          3.09500       -0.24200       -4.59200
H          5.70000       -2.94300       -4.47800
H          4.97900       -0.34200       -6.00600
H          6.46700       -2.98000       -6.78200
H          5.79700       -2.43600       -2.02100
H          4.57100       -1.63500       -0.05200
