17
17342-08-4.pdb
O          2.79800       -1.28200        0.46900
C          2.27000       -0.02500        0.04700
C          2.88600        1.09300        0.88700
C          2.32900        2.47100        0.56100
C          3.45700        3.42100        0.96000
C          4.69300        2.57200        0.79600
O          5.84700        2.96000        0.83500
N          4.29400        1.26200        0.64100
H          2.43000       -1.95900       -0.12500
H          1.18400       -0.05100        0.17700
H          2.50300        0.10400       -1.01500
H          2.78100        0.87100        1.95600
H          1.39400        2.68500        1.08900
H          2.13600        2.56900       -0.51500
H          3.37200        3.72500        2.00800
H          3.49400        4.29900        0.31000
H          4.97100        0.51000        0.70900
