20
17362-17-3.pdb
O          2.27800        0.06100        0.03500
C          0.91600        0.01200        0.03100
C          0.23200       -1.19800        0.02400
C         -1.16600       -1.19900        0.00500
C         -1.87900        0.01000       -0.01700
C         -3.38800        0.01200       -0.06800
C         -4.02200        0.03400        1.32300
C         -5.48700        0.06600        1.22000
N         -6.64300        0.09200        1.12900
C         -1.16900        1.21900        0.00600
C          0.22600        1.21800        0.02700
H          2.62200       -0.84700        0.00100
H          0.76400       -2.14400        0.02800
H         -1.69400       -2.15000       -0.00800
H         -3.73200       -0.86700       -0.62800
H         -3.72400        0.87900       -0.65200
H         -3.67600        0.90900        1.88500
H         -3.71500       -0.85000        1.89300
H         -1.69500        2.17100       -0.00700
H          0.77400        2.15600        0.03100
