31
17372-52-0.pdb
O          2.12900        0.16300        0.06300
C          0.90600        0.07800        0.06200
O          0.26000       -1.12300        0.08000
C         -1.15100       -1.17600        0.04900
C         -1.89200       -0.05800        0.04000
C         -1.26100        1.23400        0.03100
C          0.07900        1.30100        0.04100
C         -2.06200        2.46900       -0.00300
C         -2.44500        3.02900       -1.22900
C         -3.30200        4.13100       -1.26000
C         -3.78500        4.67500       -0.07100
C         -3.40100        4.12700        1.15300
C         -2.54100        3.02800        1.18700
C         -1.74200       -2.52300        0.02700
C         -2.96300       -2.76400       -0.62500
C         -3.52200       -4.04000       -0.65300
C         -2.86200       -5.09900       -0.03600
C         -1.64500       -4.88100        0.60700
C         -1.08500       -3.60100        0.63600
H         -2.97800       -0.08700        0.03700
H          0.62400        2.23700        0.03100
H         -2.09700        2.59900       -2.16600
H         -3.60400        4.55700       -2.21400
H         -4.46700        5.52200       -0.09700
H         -3.78300        4.54700        2.08000
H         -2.26600        2.59800        2.14800
H         -3.49400       -1.96000       -1.12900
H         -4.46900       -4.20400       -1.16000
H         -3.29400       -6.09400       -0.06300
H         -1.12800       -5.70800        1.08700
H         -0.13500       -3.45400        1.14700
