42
1738-76-7.pdb
C          1.69300       -0.63600       -1.69200
C          0.36400       -0.43600       -1.02900
C         -0.16700        0.85000       -0.85600
C         -1.46800        1.01300       -0.38800
C         -2.23600       -0.11800       -0.09900
C         -1.69300       -1.40100       -0.18300
C         -0.38900       -1.55500       -0.64500
S         -3.98500        0.07100        0.12200
O         -4.34800        1.30300       -0.85500
O         -4.61900       -1.08800       -0.47400
O         -4.21900        0.47300        1.48600
N          2.07200        0.06300        1.84400
C          3.38900        0.36400        1.26600
C          3.58800        1.86600        1.11300
O          2.67800        2.67900        1.00900
O          4.91600        2.14300        1.02700
C          5.26400        3.52600        0.92800
C          5.96100        3.93300        2.19800
C          7.35500        3.84100        2.31000
C          7.99400        4.22400        3.49000
C          7.24800        4.68800        4.57000
C          5.85800        4.75800        4.48000
C          5.21700        4.37700        3.30100
H          2.24700        0.30500       -1.77200
H          1.54600       -1.03300       -2.70100
H          2.30100       -1.34500       -1.12200
H          0.41800        1.73200       -1.11400
H         -1.89000        2.01200       -0.29500
H         -2.29300       -2.27700        0.05500
H          0.02300       -2.55700       -0.75000
H         -4.36700        0.97000       -1.77800
H          1.72900       -0.82200        1.47400
H          1.40300        0.76900        1.51800
H          3.48900       -0.07500        0.27200
H          4.16300       -0.05200        1.91500
H          4.41100        4.18600        0.72800
H          5.94300        3.63700        0.07400
H          7.94900        3.46900        1.48000
H          9.07500        4.15200        3.56800
H          7.74700        4.98700        5.48800
H          5.27400        5.10800        5.32700
H          4.13100        4.42800        3.24500
