22
17408-16-1.pdb
C          0.97500       -0.00300        0.56300
C          2.46600       -0.02800        0.85600
C          3.06500       -1.40000        0.60500
O          2.38900       -2.35400        0.22800
C          4.52700       -1.60200        0.83800
C          5.37400       -0.56000        1.24000
C          6.73100       -0.80200        1.47000
C          7.25200       -2.08600        1.30900
C          6.40700       -3.12900        0.90800
C          5.05000       -2.89100        0.66100
N          6.94400       -4.48900        0.76600
O          8.14500       -4.66000        1.02300
O          6.16800       -5.38300        0.40600
H          0.57300        1.00300        0.71300
H          0.43500       -0.69000        1.22300
H          0.77300       -0.30300       -0.47000
H          2.62800        0.24400        1.90400
H          2.96600        0.70000        0.20800
H          5.00200        0.45100        1.38700
H          7.38200        0.01200        1.78500
H          8.30900       -2.25900        1.50500
H          4.39300       -3.70100        0.34600
