24
1742-95-6.pdb
N          0.98000        0.12400       -0.14900
C          2.37400        0.07200        0.04800
C          3.07500        1.28600        0.02000
C          4.46600        1.31300        0.04700
C          5.17800        0.11400        0.05900
C          6.65800        0.15600        0.05400
O          7.27400        1.21500        0.05500
N          7.30200       -1.05600        0.04400
C          6.72000       -2.29900        0.04300
O          7.39000       -3.32500        0.04000
C          5.24000       -2.33300        0.04500
C          4.59200       -3.57000        0.03400
C          3.20600       -3.61600        0.02100
C          2.47100       -2.42700        0.01500
C          3.09600       -1.15700        0.03600
C          4.51700       -1.12500        0.05200
H          0.55200        0.99600        0.14400
H          0.46600       -0.67900        0.19200
H          2.53500        2.22900       -0.02700
H          4.98800        2.26700        0.03700
H          8.31200       -1.03100        0.03700
H          5.16500       -4.49500        0.03100
H          2.69200       -4.57400        0.01200
H          1.38800       -2.51200       -0.00200
