19
17422-74-1.pdb
O          2.52400        1.07200        0.61900
C          2.21600        0.05000        0.00700
C          2.96300       -1.21700        0.13100
C          4.03800       -1.25700        0.92900
O          4.84900       -2.34400        1.14500
C          4.52200       -3.51600        0.51200
C          5.34000       -4.61900        0.74900
C          5.06300       -5.83600        0.12200
C          3.97000       -5.95100       -0.73900
C          3.14800       -4.84900       -0.97500
C          3.42900       -3.63100       -0.34800
C          2.59300       -2.44300       -0.60500
O          1.66000       -2.47300       -1.39500
H          1.35400        0.02900       -0.67600
H          4.39900       -0.40600        1.49500
H          6.19400       -4.53300        1.41500
H          5.70400       -6.69600        0.30100
H          3.75900       -6.89900       -1.22900
H          2.29900       -4.93800       -1.65000
