30
175204-17-8.pdb
C          1.51500       -0.85700       -0.50800
C          2.61700        0.16300       -0.28200
O          3.51400        0.10200       -1.39900
C          4.51100       -0.81000       -1.30200
O          4.86200       -1.39800       -0.29300
C          5.05600       -1.10700       -2.65300
C          4.53200       -0.52900       -3.81100
C          4.98200       -0.93000       -5.07500
C          5.96800       -1.91400       -5.22700
N          6.36100       -2.36500       -6.51600
C          5.86700       -1.97800       -7.74900
C          6.50000       -2.72400       -8.89800
O          4.98600       -1.15200       -7.95900
C          6.53200       -2.45500       -4.04400
C          6.07100       -2.06000       -2.77000
N          7.61400       -3.45500       -4.08700
O          8.04700       -3.80200       -5.19700
O          8.04000       -3.89900       -3.01100
H          0.77900       -0.83200        0.29800
H          1.93000       -1.86800       -0.57800
H          1.00700       -0.66200       -1.46000
H          3.13400       -0.00300        0.66900
H          2.19300        1.17200       -0.25600
H          3.74600        0.22200       -3.75900
H          4.51200       -0.45000       -5.93000
H          7.08200       -3.08800       -6.52900
H          7.49700       -3.09300       -8.64200
H          6.59800       -2.04700       -9.75200
H          5.86000       -3.56700       -9.17300
H          6.48100       -2.50600       -1.86300
