24
175201-51-1.pdb
C          1.04600        0.15800       -0.06300
C          2.57100        0.10700        0.03100
C          3.00700       -1.28800        0.41200
C          3.53600       -1.51100        1.62200
N          3.75500       -0.51200        2.56000
C          4.19600       -0.84400        3.91400
C          3.63300        0.81700        2.21100
N          3.07100        1.10800        0.97800
N          3.00800        2.42100        0.67200
C          3.53700        2.99400        1.75700
C          3.93800        2.06100        2.74400
C          4.56400        2.51200        4.00200
O          4.93100        1.65100        4.85700
O          4.69200        3.77200        4.14100
H          0.66700       -0.59700       -0.76100
H          0.70200        1.13700       -0.41300
H          0.57900       -0.02300        0.91400
H          3.01700        0.36100       -0.93800
H          2.86800       -2.09600       -0.29400
H          3.83000       -2.50700        1.93700
H          4.08700       -1.91800        4.10900
H          3.57100       -0.34600        4.66300
H          5.25500       -0.60900        4.05000
H          3.62700        4.07300        1.80100
