26
1758-25-4.pdb
C          1.01900        0.21100       -0.21100
O          2.41900       -0.00200       -0.05800
C          2.98800       -0.85900       -0.95800
C          2.50000       -1.11600       -2.23500
C          3.14800       -2.03600       -3.06100
C          4.29200       -2.70800       -2.62000
O          4.97400       -3.64100       -3.36000
C          4.37500       -4.06000       -4.58600
C          4.82900       -2.41900       -1.35200
C          6.05900       -3.12100       -0.81000
C          7.38600       -2.75800       -1.44300
O          7.44800       -2.86400       -2.78600
O          8.38100       -2.47600       -0.78400
C          4.16000       -1.48700       -0.53300
H          0.66600        0.77300        0.65900
H          0.47300       -0.73900       -0.23900
H          0.80500        0.81300       -1.10100
H          1.62400       -0.60500       -2.62200
H          2.73000       -2.20000       -4.05000
H          5.00000       -4.85300       -5.00700
H          4.35100       -3.23700       -5.30700
H          3.37500       -4.47400       -4.41800
H          5.92700       -4.20700       -0.86200
H          6.15700       -2.88500        0.25900
H          6.59600       -3.15700       -3.17100
H          4.53800       -1.26100        0.46200
