17
17584-12-2.pdb
C          1.08900       -0.14400        0.08800
C          2.58000       -0.05800        0.07600
N          3.26600       -1.21600        0.06500
N          4.62600       -1.17600        0.00300
C          5.25900        0.01000       -0.04700
N          6.63900        0.03700       -0.12900
N          4.62700        1.18700       -0.00000
C          3.27400        1.14300        0.05500
C          2.56600        2.46400        0.07400
H          0.76000       -1.18800        0.09200
H          0.67400        0.33300       -0.80600
H          0.68100        0.34100        0.98000
H          7.03500       -0.81400        0.24500
H          6.98700        0.91500        0.23100
H          3.28500        3.29100        0.08200
H          1.94400        2.55400        0.96900
H          1.94000        2.57300       -0.81800
