26
1762-34-1.pdb
C          2.52400       -0.13500        0.01600
C          1.03500       -0.00900        0.02100
C          0.40300        1.23200        0.03400
C         -0.98800        1.29500        0.02100
C         -1.73300        0.11600       -0.00900
N         -1.12500       -1.10400       -0.00700
C          0.22600       -1.13700        0.00800
C         -3.21300        0.12300       -0.07900
C         -3.95900       -1.05600       -0.09000
C         -5.34600       -0.99300       -0.21000
C         -5.97200        0.24600       -0.31200
C         -7.45300        0.37100       -0.45700
C         -5.16300        1.37400       -0.27500
N         -3.81700        1.34200       -0.16300
H          3.00700        0.84700       -0.00000
H          2.85300       -0.68500       -0.87100
H          2.86000       -0.66300        0.91400
H          0.97900        2.15400        0.04500
H         -1.48700        2.26100        0.02300
H          0.65400       -2.13600        0.00300
H         -3.46500       -2.02000       -0.01800
H         -5.92100       -1.91400       -0.23000
H         -7.93400       -0.61200       -0.49600
H         -7.69800        0.90000       -1.38400
H         -7.87200        0.91900        0.39300
H         -5.58800        2.37300       -0.34300
