30
17639-64-4.pdb
C          2.44300        0.32600        0.14400
C          0.94400        0.27000        0.10500
C          0.19400        0.14200        1.28300
C         -1.20300        0.10300        1.23500
C         -1.85300        0.20300        0.00300
C         -1.11400        0.29300       -1.18100
C          0.27900        0.33400       -1.12700
S         -3.62200        0.04500       -0.08800
O         -3.93600       -0.48100       -1.40300
O         -4.06100       -0.63800        1.11200
N         -4.18500        1.61400       -0.02500
C         -4.37500        2.34300        1.22800
C         -5.20100        3.52800        0.74400
C         -4.53500        3.89100       -0.57600
C         -3.99400        2.57000       -1.12700
H          2.82100        0.29200        1.17100
H          2.79300        1.25900       -0.31000
H          2.86900       -0.52100       -0.40200
H          0.69500        0.05800        2.24600
H         -1.76900       -0.02700        2.15500
H         -1.61400        0.31200       -2.14700
H          0.84800        0.40200       -2.05300
H         -3.41500        2.67300        1.64000
H         -4.92400        1.76300        1.97200
H         -5.22400        4.35800        1.45600
H         -6.23500        3.21000        0.55700
H         -3.71300        4.59400       -0.40400
H         -5.23500        4.36800       -1.27300
H         -2.93800        2.67800       -1.39000
H         -4.56100        2.24900       -2.00400
