19
177760-52-0.pdb
C          2.29800        1.27600        1.81000
C          2.52400        0.29700        0.67200
O          3.13900       -0.88100        1.21000
C          4.49700       -0.83300        1.30300
O          5.20700       -0.01400        0.72800
C          5.02500       -1.80100        2.24800
C          6.33900       -1.88500        2.64700
O          6.43300       -2.84400        3.60600
C          5.15800       -3.29600        3.74500
N          4.96700       -4.24900        4.65200
N          4.27900       -2.73200        2.95400
H          1.79900        2.18400        1.46100
H          3.24700        1.55500        2.27900
H          1.68700        0.81300        2.59300
H          3.12100        0.74500       -0.13100
H          1.56400        0.00000        0.23500
H          7.24600       -1.35600        2.39100
H          5.78200       -4.76900        4.95500
H          4.12000       -4.79700        4.56300
