37
177906-48-8.pdb
C          3.73900       -1.23800       -2.59400
C          4.55600       -1.00200       -1.32600
C          3.66600       -1.16500       -0.08700
C          5.68900       -2.06300       -1.31000
O          5.10500        0.35600       -1.37800
C          4.20100        1.39500       -1.45700
O          2.99500        1.31700       -1.43700
N          4.84000        2.60800       -1.51900
C          4.16400        3.86600       -1.23400
C          4.36400        4.20600        0.25300
C          3.80000        5.57900        0.61400
C          4.35700        6.70200       -0.26900
N          5.77000        6.95500        0.01700
C          4.15900        6.36000       -1.75200
C          4.71400        4.98300       -2.13200
H          3.29000       -2.23300       -2.60500
H          4.36200       -1.11300       -3.48400
H          2.93500       -0.51200       -2.67600
H          3.21300       -2.15900       -0.04300
H          2.85100       -0.44200       -0.10900
H          4.21100       -0.98200        0.84300
H          5.27900       -3.08300       -1.36400
H          6.31700       -2.02400       -0.40900
H          6.36500       -1.93200       -2.16700
H          5.82300        2.53900       -1.32400
H          3.08700        3.75500       -1.42600
H          5.43300        4.16900        0.49900
H          3.88500        3.44700        0.88300
H          3.99800        5.79000        1.67300
H          2.70900        5.55000        0.50400
H          3.80900        7.62600       -0.04800
H          6.33800        6.13400       -0.17800
H          5.88900        7.14900        1.01200
H          4.62100        7.13000       -2.38300
H          3.08500        6.38200       -1.97800
H          5.80800        5.00300       -2.07500
H          4.47000        4.77200       -3.18000
