42
17832-16-5.pdb
C          2.26700        3.49100        0.30200
C          3.24600        3.86700       -0.53100
C          3.70800        3.05000       -1.69800
O          5.09000        2.72900       -1.50400
C          5.39700        1.41200       -1.42900
O          4.61400        0.47800       -1.47000
C          6.87200        1.22200       -1.33500
C          7.37500       -0.08700       -1.23600
C          8.75800       -0.30500       -1.22300
C          9.63100        0.78900       -1.30900
C          9.13600        2.09600       -1.40500
C          7.75400        2.31000       -1.40700
C         10.11200        3.21300       -1.53700
O         11.31800        3.03600       -1.56000
O          9.46800        4.40100       -1.62100
C         10.30000        5.56100       -1.73600
C          9.90900        6.29800       -2.98100
C         10.74300        6.53400       -4.00200
C          9.36100       -1.66300       -1.22000
O         10.47200       -1.87200       -1.68000
O          8.54100       -2.57600       -0.64700
C          9.04700       -3.92100       -0.63100
C          9.19400       -4.37200        0.79100
C         10.35600       -4.75800        1.34100
H          1.95900        4.12400        1.12800
H          1.75500        2.54000        0.18100
H          3.73700        4.82500       -0.37700
H          3.63600        3.65500       -2.60800
H          3.07700        2.16700       -1.84700
H          6.68600       -0.93000       -1.20600
H         10.70900        0.61600       -1.32000
H          7.36500        3.32200       -1.49100
H         11.37000        5.32800       -1.73200
H         10.10000        6.19700       -0.86700
H          8.88800        6.67000       -3.03100
H         11.76900        6.17700       -3.99000
H         10.41600        7.08700       -4.87800
H          9.98700       -4.03900       -1.18100
H          8.30600       -4.55600       -1.12900
H          8.28800       -4.41100        1.39100
H         11.28500       -4.74200        0.77700
H         10.40500       -5.09700        2.37100
