16
1783-96-6.pdb
N          0.95500        0.24500       -0.13900
C          2.44400        0.12400       -0.10600
C          2.89500       -1.30200       -0.38600
C          4.35400       -1.49100       -0.05200
O          5.19300       -1.33200       -1.09700
O          4.75000       -1.77300        1.06900
C          2.99200        1.07800       -1.18200
O          2.17700        2.14200       -1.36200
O          4.00600        0.87800       -1.83500
H          0.56600       -0.31600        0.62300
H          0.60700       -0.20500       -0.99100
H          2.80200        0.48100        0.87000
H          2.71100       -1.60300       -1.42400
H          2.34200       -2.01100        0.24200
H          4.80700       -0.82900       -1.85200
H          1.38200        1.99100       -0.79300
