20
1792-81-0.pdb
O          1.07000       -0.04400        0.15800
C          2.50300       -0.03000        0.09300
C          2.96900        1.01500       -0.92100
C          2.57700        0.64100       -2.35200
C          3.05000       -0.76300       -2.72400
C          2.56500       -1.80300       -1.72000
C          2.98900       -1.43600       -0.29800
O          2.44800       -2.39900        0.60600
H          0.78300        0.85600        0.39200
H          2.85900        0.22000        1.09900
H          4.06000        1.11700       -0.86100
H          2.53300        1.99200       -0.68200
H          3.00400        1.36900       -3.05100
H          1.48700        0.69800       -2.46100
H          4.14600       -0.78000       -2.76200
H          2.69000       -1.02100       -3.72600
H          2.95600       -2.79300       -1.98000
H          1.47200       -1.89500       -1.77500
H          4.08200       -1.48400       -0.21800
H          1.49500       -2.18200        0.66400
