21
1798-09-0.pdb
C          1.14200       -0.23800       -0.48300
O          2.42000        0.07000        0.05500
C          3.08000       -0.94700        0.69200
C          2.58700       -2.23000        0.91800
C          3.37700       -3.17400        1.58000
C          4.66200       -2.84200        2.01500
C          5.17900       -1.56200        1.79600
C          6.57100       -1.13900        2.20900
C          7.44400       -2.14800        2.95500
O          7.79800       -3.17100        2.29800
O          7.75700       -1.81900        4.13500
C          4.36600       -0.62200        1.13800
H          0.77700        0.65200       -1.00500
H          0.42700       -0.47500        0.31200
H          1.20300       -1.04900       -1.21700
H          1.59900       -2.53300        0.59300
H          3.00000       -4.17900        1.75400
H          5.26300       -3.60100        2.51300
H          6.48000       -0.23800        2.83000
H          7.12300       -0.84900        1.30400
H          4.75000        0.38000        0.95900
