31
1798-04-5.pdb
C          3.27600        1.31500       -0.59300
C          2.62100        0.00900       -0.08200
C          1.08900        0.16200       -0.17100
C          3.03000       -1.10900       -1.07100
C          3.02800       -0.28400        1.37700
C          3.34800        0.75500        2.27100
C          3.70300        0.51000        3.60300
C          3.73400       -0.79000        4.09000
O          4.07700       -1.14100        5.37000
C          3.76000       -0.15700        6.36500
C          4.14000       -0.68600        7.73800
O          4.71500       -1.91400        7.70400
O          3.96900       -0.06600        8.77400
C          3.43400       -1.83900        3.22500
C          3.07300       -1.59100        1.89200
H          3.01300        1.51700       -1.63800
H          4.37000        1.25600       -0.52500
H          2.95200        2.19200       -0.02500
H          0.77200        0.32800       -1.20800
H          0.73000        1.01200        0.42100
H          0.57400       -0.73700        0.18800
H          2.67200       -0.88400       -2.08300
H          2.60300       -2.08200       -0.80700
H          4.11900       -1.22000       -1.12200
H          3.33600        1.79600        1.95900
H          3.96400        1.36700        4.21500
H          2.67500        0.02100        6.36800
H          4.33300        0.75700        6.21400
H          4.76300       -2.22900        6.77400
H          3.46300       -2.86500        3.58500
H          2.82300       -2.44900        1.27500
