27
180-84-7.pdb
C         -2.76200        0.42300        0.29300
C         -2.37800       -0.48400       -0.86700
C         -1.14700       -1.31000       -0.50300
C          0.00000       -0.41600        0.00200
C          1.14800       -1.30900        0.50600
C          2.37900       -0.48400        0.86900
C          2.76300        0.42300       -0.29100
C          1.56100        1.22900       -0.75800
O          0.46200        0.38400       -1.09500
O         -0.46200        0.38400        1.09800
C         -1.56100        1.23000        0.76000
H         -3.12300       -0.19800        1.12100
H         -3.57900        1.09200        0.00000
H         -2.16900        0.12200       -1.75700
H         -3.21400       -1.14700       -1.11900
H         -0.83200       -1.88500       -1.38100
H         -1.43300       -2.02200        0.28200
H          1.43300       -2.02200       -0.27800
H          0.83300       -1.88400        1.38500
H          3.21500       -1.14600        1.12100
H          2.17100        0.12200        1.75900
H          3.12200       -0.19900       -1.12000
H          3.58000        1.09100        0.00100
H          1.82500        1.79700       -1.65600
H          1.25400        1.95600        0.00200
H         -1.25300        1.95700        0.00000
H         -1.82500        1.79700        1.65800
