36
1801-42-9.pdb
O          2.31400       -1.28200        0.04600
C          1.57000       -0.32400        0.06000
C          0.11400       -0.38000        0.03500
C         -0.73000       -1.47600        0.01700
C         -2.10300       -1.22400        0.00700
C         -2.58500        0.09800        0.01000
C         -1.70100        1.18500        0.02100
C         -0.33900        0.92900        0.03400
C          0.80000        1.85100        0.05100
C          1.93900        1.12300        0.09200
C          3.32000        1.59600        0.13000
C          3.94600        1.86600        1.35400
C          5.29100        2.24100        1.39000
C          6.01500        2.35800        0.20500
C          5.38900        2.12600       -1.01900
C          4.04400        1.75100       -1.05700
C          0.75700        3.31500       -0.00100
C          0.75500        3.96900       -1.23900
C          0.69200        5.36100       -1.29900
C          0.62600        6.10600       -0.12200
C          0.62700        5.46100        1.11400
C          0.69400        4.06800        1.17700
H         -0.33800       -2.48800        0.01200
H         -2.80800       -2.05300       -0.00300
H         -3.65800        0.27800        0.00300
H         -2.08200        2.20200        0.02100
H          3.39800        1.76600        2.28800
H          5.77900        2.42600        2.34400
H          7.06800        2.62500        0.23400
H          5.95100        2.21900       -1.94400
H          3.57200        1.56300       -2.01800
H          0.80100        3.39800       -2.16300
H          0.69600        5.86400       -2.26200
H          0.57500        7.19100       -0.16900
H          0.57500        6.04400        2.03000
H          0.69400        3.57600        2.14600
