32
18066-68-7.pdb
C          2.12000        5.20700        2.14800
C          2.13400        4.32000        0.91600
O          2.93000        3.16600        1.21700
C          4.26800        3.30200        0.96400
O          4.76300        4.18700        0.28500
C          5.01500        2.22400        1.72100
C          6.51300        2.33400        1.62800
C          7.21700        1.58900        0.68100
C          8.61000        1.66800        0.61500
C          9.33100        2.50100        1.47900
O         10.70000        2.55900        1.50100
C         11.41600        1.67300        0.65400
C          8.62400        3.30100        2.39200
O          9.15500        4.18200        3.30200
C         10.34000        4.86200        2.90200
C          7.22600        3.19800        2.47200
H          1.55300        6.12400        1.97100
H          3.13900        5.47200        2.45000
H          1.67400        4.67100        2.99300
H          2.50300        4.85900        0.03600
H          1.12100        3.97500        0.68700
H          4.68400        1.24600        1.35300
H          4.72300        2.29400        2.77700
H          6.69000        0.93200       -0.00700
H          9.10500        1.05100       -0.12900
H         12.48300        1.81200        0.85100
H         11.23900        1.91300       -0.40000
H         11.17400        0.62800        0.87100
H         10.41100        5.78000        3.49500
H         10.31700        5.15500        1.84700
H         11.22400        4.26200        3.13400
H          6.69700        3.80900        3.20000
