24
1806-29-7.pdb
O          2.24400       -0.15800        0.23100
C          0.88000       -0.07300        0.11200
C          0.15700       -1.27700        0.09200
C         -1.23100       -1.25800       -0.00100
C         -1.89200       -0.04100       -0.08700
C         -1.16500        1.15400       -0.08800
C          0.24300        1.18600        0.03000
C          0.97500        2.49500        0.02400
C          2.22300        2.61200       -0.62600
C          2.94600        3.81200       -0.65600
C          2.42600        4.95100       -0.05800
C          1.19100        4.88700        0.57500
C          0.48300        3.67700        0.62100
O         -0.72000        3.67400        1.28300
H          2.51100       -1.08700        0.14800
H          0.66300       -2.23500        0.15600
H         -1.79300       -2.18700       -0.00600
H         -2.97600       -0.01100       -0.15500
H         -1.72500        2.08200       -0.18100
H          2.66100        1.75300       -1.12900
H          3.91400        3.84500       -1.14800
H          2.98200        5.88400       -0.08400
H          0.79400        5.78600        1.03800
H         -0.96000        4.58800        1.51200
