36
181695-72-7.pdb
C          2.22200        0.12600       -0.09800
C          0.76700       -0.14200       -0.04900
O         -0.01400        0.96700       -0.05700
N         -1.33700        0.61100       -0.01300
C         -1.37300       -0.73100        0.04100
C         -2.66500       -1.42000        0.13300
C         -3.78700       -0.91500       -0.54500
C         -5.01200       -1.59000       -0.49500
C         -5.12600       -2.77600        0.22700
C         -4.02700       -3.27500        0.92100
C         -2.81100       -2.58700        0.89300
C         -0.03600       -1.26900       -0.00800
C          0.45700       -2.64500       -0.05000
C         -0.25300       -3.63600       -0.74900
C          0.18500       -4.96300       -0.76700
C          1.38300       -5.29800       -0.13800
C          2.11000       -4.33300        0.55900
C          1.63700       -3.01900        0.61300
S          1.98800       -6.95800       -0.22800
N          2.85000       -6.90300       -1.66600
O          2.96600       -7.16500        0.81900
O          0.87900       -7.85300       -0.44600
H          2.42500        1.19300       -0.23500
H          2.69200       -0.41600       -0.92100
H          2.70000       -0.17000        0.84000
H         -3.71400        0.00400       -1.12100
H         -5.87400       -1.18600       -1.01800
H         -6.07400       -3.30800        0.25400
H         -4.11300       -4.20000        1.48700
H         -1.97800       -2.98700        1.46600
H         -1.16900       -3.39400       -1.28600
H         -0.40400       -5.71900       -1.28200
H          3.04200       -4.59100        1.05700
H          2.20900       -2.30100        1.19200
H          3.84100       -7.06200       -1.48900
H          2.43700       -7.53700       -2.34800
