19
18212-20-9.pdb
C          2.26200        1.79000        1.29200
C          2.50100        0.53500        0.47100
O          3.09800       -0.43900        1.33900
C          4.45500       -0.36000        1.45200
O          5.17700        0.21500        0.64400
C          4.87600       -0.93700        2.69600
S          6.51600       -0.79700        3.17800
N          6.25200       -1.53100        4.65200
N          4.99700       -1.90600        4.81900
C          4.20300       -1.58900        3.72100
C          2.76400       -1.95200        3.79100
H          1.74900        2.55800        0.70800
H          3.21000        2.20000        1.65800
H          1.66400        1.55400        2.17800
H          3.11600        0.73800       -0.41200
H          1.54800        0.12800        0.12000
H          2.55100       -2.53100        4.69700
H          2.47800       -2.56600        2.93100
H          2.13500       -1.05700        3.81200
