12
18212-21-0.pdb
C         -2.57300       -0.34900       -0.00700
C         -1.09700       -0.19200       -0.00300
N         -0.58200        1.10800       -0.00500
N          0.74100        1.11600       -0.00200
S          1.39500       -0.42500        0.00300
C         -0.13100       -1.18600        0.00200
C         -0.34100       -2.64100        0.00500
O         -1.54200       -3.05100        0.00300
O          0.69700       -3.37200        0.01000
H         -3.06600        0.62900       -0.00200
H         -2.91100       -0.89300        0.88000
H         -2.90600       -0.88100       -0.90400
