24
1821-12-1.pdb
O          1.08800       -0.04700        0.01800
C          2.43600       -0.02800        0.15900
O          2.96800        0.05300        1.25200
C          3.16200       -0.11600       -1.16600
C          4.67500       -0.09200       -0.96200
C          5.44500       -0.18100       -2.27600
C          6.93800       -0.16300       -2.05500
C          7.63400       -1.35600       -1.81300
C          9.02100       -1.34700       -1.65900
C          9.72500       -0.14800       -1.74300
C          9.04000        1.04700       -1.95400
C          7.65100        1.04300       -2.09400
H          0.78600       -0.11400       -0.90600
H          2.85400        0.73400       -1.78700
H          2.86500       -1.04700       -1.66200
H          4.96600       -0.92400       -0.30500
H          4.95600        0.82900       -0.43300
H          5.16800        0.64900       -2.93900
H          5.17600       -1.09800       -2.81700
H          7.09900       -2.30100       -1.75600
H          9.55300       -2.27900       -1.48700
H         10.80700       -0.14500       -1.64600
H          9.58900        1.98300       -2.02100
H          7.13100        1.98500       -2.24900
