30
18229-78-2.pdb
C          1.03800        0.05200        0.06800
C          2.55900        0.03100        0.07000
C          3.09000       -1.39600        0.17500
C          4.61000       -1.39600        0.17500
C          5.91400       -1.39600        0.17500
C          7.43400       -1.39600        0.17500
O          7.87600       -2.75000        0.11100
C          9.29600       -2.85100        0.15200
C          9.67500       -4.31900        0.11800
O          7.90000       -0.64900       -0.95500
C          7.49400        0.71900       -0.91800
C          8.04100        1.42600       -2.14000
H          0.67200        1.08000       -0.01000
H          0.63800       -0.38200        0.99100
H          0.63800       -0.51500       -0.78000
H          2.92800        0.63400        0.90700
H          2.92700        0.50200       -0.85100
H          2.73700       -2.00100       -0.66800
H          2.73700       -1.87000        1.09800
H          7.79700       -0.93700        1.10300
H          9.68000       -2.38900        1.06900
H          9.73500       -2.34500       -0.71500
H          9.24600       -4.85000        0.97400
H         10.76200       -4.44200        0.13600
H          9.28100       -4.79800       -0.78400
H          7.86800        1.19400       -0.00600
H          6.40100        0.80000       -0.94100
H          9.13400        1.38400       -2.15600
H          7.72400        2.47300       -2.15200
H          7.68500        0.94200       -3.05700
