19
1823-91-2.pdb
C          3.68300       -0.81900       -0.33500
C          2.45900        0.05500       -0.05700
C          1.51500       -0.66500        0.89300
N          0.73200       -1.26300        1.68000
C          2.85400        1.41000        0.50700
C          2.54600        2.58500       -0.19700
C          2.88300        3.83600        0.32400
C          3.53400        3.93100        1.55300
C          3.84900        2.77500        2.26200
C          3.51500        1.52400        1.74400
H          3.38700       -1.76900       -0.79200
H          4.23400       -1.05900        0.58300
H          4.37700       -0.31600       -1.01800
H          1.92200        0.19700       -1.00400
H          2.03100        2.54000       -1.15400
H          2.63300        4.74000       -0.22600
H          3.78900        4.90500        1.96000
H          4.35100        2.84800        3.22400
H          3.76200        0.63800        2.32700
