23
1823-14-9.pdb
C          0.94500       -0.11700        0.02800
C          2.24900       -0.11200        0.02000
C          3.76900       -0.10500        0.01100
C          4.29400        1.08700        0.80400
C          5.81900        1.09100        0.78900
C          6.40200        2.23000        1.58300
C          6.60000        2.10200        2.96400
C          7.20000        3.12900        3.68900
C          7.60200        4.29800        3.04200
C          7.37500        4.45000        1.67600
C          6.76800        3.42500        0.95000
H         -0.12000       -0.12100        0.03500
H          4.11400       -0.06000       -1.02800
H          4.12800       -1.04500        0.44400
H          3.92300        1.04100        1.83600
H          3.90900        2.02200        0.37800
H          6.18600        1.14400       -0.24400
H          6.20300        0.14600        1.19300
H          6.29500        1.19200        3.48100
H          7.36600        3.01700        4.75700
H          8.09300        5.09000        3.60300
H          7.68000        5.36300        1.17200
H          6.59600        3.55700       -0.11500
