27
1824-94-8.pdb
C          1.08600       -1.30200        2.52700
O          2.48100       -1.14700        2.30900
C          2.82600       -1.11700        0.92200
O          2.52100       -2.38600        0.33200
C          2.84000       -2.45500       -1.06400
C          2.33300       -3.80100       -1.59500
O          2.61800       -3.95800       -2.97900
C          4.35700       -2.30100       -1.23400
O          5.05700       -3.35600       -0.55100
C          4.79900       -0.95600       -0.64900
O          6.22300       -0.83500       -0.74600
C          4.33900       -0.79800        0.81100
O          4.62400        0.52400        1.29800
H          0.89900       -1.23100        3.60300
H          0.75000       -2.28600        2.19000
H          0.51800       -0.51500        2.02400
H          2.24300       -0.32700        0.43600
H          2.32500       -1.64800       -1.60300
H          2.75400       -4.64500       -1.03700
H          1.24700       -3.85900       -1.46300
H          3.53700       -4.27400       -3.05200
H          4.65500       -2.35700       -2.28600
H          4.57200       -3.54700        0.27600
H          4.38200       -0.13900       -1.25000
H          6.59100       -1.70100       -0.47400
H          4.90700       -1.48000        1.45500
H          4.53700        1.15600        0.56500
