19
18344-51-9.pdb
C          1.10500        0.05400        0.08600
C          2.60600        0.04300       -0.03200
C          3.29800        1.26200       -0.10700
C          4.68400        1.25100       -0.23600
C          5.36100        0.04000       -0.27200
N          4.66500       -1.10900       -0.19100
C          3.32700       -1.16500       -0.10100
N          2.72800       -2.40000        0.03500
N          5.44500        2.49000       -0.33800
O          4.81800        3.55200       -0.31200
O          6.67100        2.37800       -0.45000
H          0.71800        1.07300        0.19800
H          0.78300       -0.51800        0.96200
H          0.65700       -0.37500       -0.81600
H          2.74900        2.20500       -0.06200
H          6.43800       -0.06100       -0.35700
H          5.17200       -1.99200       -0.18900
H          3.25300       -3.26000       -0.07200
H          1.78800       -2.48500       -0.34900
