23
18358-63-9.pdb
C          1.27100        0.24400        0.46500
N          2.45500       -0.02900       -0.32200
C          3.12700        0.98400       -1.00400
C          2.64900        2.29500       -1.12300
C          3.31400        3.24400       -1.91200
C          4.46000        2.88300       -2.62600
C          4.94900        1.58000       -2.52200
C          4.28000        0.64300       -1.72700
C          5.16900        3.83100       -3.51900
O          6.33700        3.70300       -3.85100
O          4.31400        4.79100       -3.95500
C          4.88000        5.66700       -4.92900
H          0.96000       -0.67400        0.97700
H          0.44100        0.55200       -0.18100
H          1.45300        1.00900        1.22500
H          3.08500       -0.71400        0.08800
H          1.75000        2.60900       -0.60200
H          2.92100        4.25600       -1.96600
H          5.83300        1.27700       -3.08000
H          4.65500       -0.37800       -1.69900
H          4.09700        6.35200       -5.26500
H          5.23600        5.10100       -5.79800
H          5.69300        6.25200       -4.48900
