27
18362-64-6.pdb
C          0.49000       -1.83900       -0.18500
C          1.94000       -2.32200       -0.23100
C          2.42600       -2.37300       -1.67600
C          2.83800       -1.42200        0.62900
O          2.40300       -0.41000        1.18400
C          4.31100       -1.75600        0.74800
C          4.61700       -3.09400        1.37800
O          3.72600       -3.84800        1.76900
C          6.09000       -3.48800        1.47700
C          6.33100       -4.38600        2.69000
C          6.51900       -4.19800        0.19800
H         -0.16100       -2.49800       -0.76900
H          0.39400       -0.82400       -0.58800
H          0.11600       -1.82500        0.84500
H          1.95900       -3.33200        0.18800
H          2.49900       -1.36800       -2.10700
H          1.74300       -2.96200       -2.29700
H          3.41400       -2.83800       -1.74700
H          4.77600       -0.98500        1.37300
H          4.76400       -1.69800       -0.24500
H          6.68300       -2.57500        1.60600
H          5.68800       -5.27300        2.67000
H          6.11800       -3.84500        3.61900
H          7.37100       -4.72600        2.72700
H          5.92700       -5.10500        0.03200
H          7.57400       -4.48700        0.24800
H          6.38800       -3.55300       -0.67600
