16
18364-47-1.pdb
C          1.02600       -0.06300        0.56100
N          2.43200       -0.04100        0.19300
C          3.09100        1.19400        0.17100
C          2.75300        2.26700        0.99900
C          3.49300        3.44800        0.97000
C          4.58500        3.52300        0.12300
N          4.98500        2.50600       -0.66400
C          4.24400        1.37200       -0.60300
H          0.63700       -1.07800        0.43400
H          0.43800        0.60300       -0.08000
H          0.87800        0.21000        1.61100
H          2.61600       -0.58000       -0.65100
H          1.91700        2.20200        1.68800
H          3.22700        4.28700        1.60300
H          5.18900        4.42400        0.06400
H          4.61700        0.56700       -1.23000
