22
18370-11-1.pdb
C          3.22900        0.23800       -1.30600
N          2.84800       -0.41600       -0.08000
C          3.24600        0.09600        1.14100
O          3.91800        1.11600        1.24200
C          2.83900       -0.66200        2.36500
C          1.84700       -1.65100        2.35400
C          1.50000       -2.31700        3.53600
C          2.12400       -1.99400        4.74500
C          1.75900       -2.70600        6.01500
C          3.10800       -1.00000        4.75900
C          3.46100       -0.33800        3.57900
H          2.68600       -0.22500       -2.13300
H          4.30600        0.11900       -1.45300
H          2.98400        1.30200       -1.24900
H          2.49900       -1.36200       -0.14000
H          1.31000       -1.90900        1.44900
H          0.72800       -3.08300        3.50400
H          0.90300       -3.37300        5.86800
H          1.48600       -1.98300        6.79000
H          2.60300       -3.30800        6.36400
H          3.60300       -0.72900        5.68900
H          4.22400        0.43800        3.61100
