25
18409-17-1.pdb
C          0.90000        0.04700       -0.08400
C          2.42000        0.05300       -0.06400
C          2.95700        0.50400        1.29400
C          4.48700        0.51300        1.31400
C          5.01700        0.96500        2.67600
C          6.52000        0.96700        2.70100
C          7.26100        2.06300        2.92700
C          8.75300        2.07600        2.97300
O          9.22300        2.95600        1.96500
H          0.53400       -0.27800       -1.06300
H          0.50200        1.04800        0.11300
H          0.50000       -0.63600        0.67200
H          2.78800        0.72000       -0.85100
H          2.78700       -0.95400       -0.29400
H          2.58300       -0.16500        2.07800
H          2.58200        1.50900        1.52100
H          4.86100        1.18200        0.52900
H          4.86100       -0.49300        1.08300
H          4.65800        0.28500        3.45800
H          4.62300        1.96000        2.91300
H          7.00700        0.00800        2.53800
H          6.77500        3.02100        3.10200
H          9.18800        1.08700        2.80400
H          9.09800        2.44400        3.94300
H          8.86100        2.63000        1.12300
