26
1846-76-0.pdb
C          2.11400        1.58800       -1.26900
C          2.56400        0.54400       -0.26500
O          3.20200        1.23400        0.81700
C          4.53000        1.45800        0.68100
O          5.25400        0.93700       -0.15800
C          4.95300        2.57000        1.55800
C          6.00600        3.27800        1.11800
C          6.44700        4.46400        1.82900
C          7.54800        5.21400        1.41500
C          7.91700        6.36000        2.12500
C          7.18300        6.76400        3.24200
C          6.07800        6.02300        3.65600
C          5.72700        4.88000        2.94300
O          4.62000        4.14400        3.39800
C          4.22700        2.95200        2.78800
O          3.33300        2.27500        3.28200
H          1.58600        1.12900       -2.11100
H          2.97000        2.15300       -1.65200
H          1.45200        2.31600       -0.78700
H          3.22200       -0.20300       -0.72400
H          1.69900        0.01400        0.14400
H          6.53400        3.01500        0.20400
H          8.12700        4.92000        0.54300
H          8.77900        6.94200        1.80400
H          7.47500        7.65700        3.79100
H          5.50100        6.32900        4.52300
