20
18489-25-3.pdb
C          1.08000        0.02800        0.08400
C          0.52400       -1.37600        0.11000
C          0.82500       -2.24500        1.17100
C          0.27700       -3.52800        1.21500
C         -0.57400       -3.96000        0.20100
C         -0.87100       -3.11300       -0.86600
C         -0.32300       -1.82900       -0.91400
C          2.41000       -0.03900       -0.56500
N          3.56900       -0.15900        0.10600
N          4.43300       -0.08700       -0.92000
N          3.89300        0.10400       -2.13000
N          2.58500        0.14200       -1.91400
H          1.15300        0.42800        1.10200
H          0.41200        0.69500       -0.47200
H          1.48900       -1.92300        1.97100
H          0.51300       -4.19000        2.04400
H         -1.00500       -4.95700        0.23800
H         -1.53100       -3.45000       -1.66000
H         -0.56500       -1.18200       -1.75500
H          5.43800       -0.15800       -0.79000
