15
1849-36-1.pdb
O          1.51300       -0.36500        0.71300
N          2.48500       -0.00100        0.03500
O          2.91400       -0.60400       -0.95900
C          3.17400        1.23200        0.43700
C          2.73000        1.94300        1.55900
C          3.38000        3.12400        1.93000
C          4.46800        3.59700        1.18700
S          5.30800        5.09900        1.64100
C          4.91100        2.87400        0.07300
C          4.26800        1.69100       -0.30700
H          1.88500        1.59600        2.15000
H          3.02600        3.66600        2.80400
H          4.41800        5.53300        2.54600
H          5.76000        3.22700       -0.51000
H          4.63000        1.14900       -1.17800
