19
1849-01-0.pdb
C          1.69500        2.06600        0.01700
N          1.07400        0.77400        0.01200
C          1.74400       -0.46400        0.01200
O          2.94600       -0.66800        0.00700
N          0.74700       -1.45500        0.01800
C         -0.50100       -0.84000        0.01100
C         -1.75400       -1.40800        0.00100
C         -2.84300       -0.52900       -0.01500
C         -2.65000        0.87000       -0.01500
C         -1.36400        1.42200       -0.00100
C         -0.30600        0.54100        0.00900
H          2.78300        1.96600       -0.00200
H          1.40100        2.60200        0.92400
H          1.37100        2.62700       -0.86400
H          0.94300       -2.44100        0.02000
H         -1.89900       -2.48100        0.00200
H         -3.85500       -0.92700       -0.03000
H         -3.51700        1.52800       -0.02900
H         -1.21800        2.49500       -0.00300
