23
18595-14-7.pdb
C          1.09100        0.56700        0.62100
O          2.51800        0.57000        0.65800
C          3.05700       -0.62300        1.01500
O          2.42800       -1.63000        1.30400
C          4.54200       -0.56300        1.01300
C          5.24500       -1.74600        1.25100
C          6.64000       -1.74500        1.24600
C          7.36900       -0.56100        1.06000
N          8.76200       -0.66000        0.93000
C          6.67000        0.62800        0.78500
C          7.34300        1.95000        0.52400
C          5.25800        0.61500        0.77200
H          0.75900        1.51700        0.19400
H          0.68900        0.48100        1.63500
H          0.71600       -0.24400       -0.01300
H          4.71100       -2.67900        1.42700
H          7.16100       -2.68800        1.39600
H          9.16200       -1.46500        1.40200
H          9.27200        0.18800        1.14400
H          8.43300        1.89300        0.52800
H          7.05200        2.66700        1.30000
H          7.04000        2.34100       -0.45200
H          4.72500        1.54100        0.56600
