23
18595-18-1.pdb
C          1.06300       -0.66800        0.56600
O          2.49100       -0.69300        0.55400
C          3.02300       -1.05400       -0.64100
O          2.38900       -1.35200       -1.64200
C          4.50900       -1.05400       -0.57900
C          5.21400       -0.75300        0.59000
C          6.60900       -0.77700        0.58400
C          7.31900       -1.10800       -0.58200
C          8.82300       -1.12600       -0.53900
C          6.61500       -1.43700       -1.75500
N          7.27400       -1.60600       -2.98200
C          5.21600       -1.36600       -1.74700
H          0.74000       -0.22200        1.51000
H          0.67000       -1.68700        0.50800
H          0.67400       -0.05500       -0.25400
H          4.69400       -0.49000        1.50700
H          7.14200       -0.52500        1.49900
H          9.20200       -0.85800        0.45200
H          9.23600       -0.41200       -1.25800
H          9.19100       -2.13200       -0.76900
H          8.22400       -1.95100       -2.91000
H          6.73300       -2.11400       -3.67600
H          4.66500       -1.56200       -2.66500
