19
1863-63-4.pdb
N          0.30300       -0.87000        0.63700
O          1.49100        1.19900        0.05600
C          2.53600        0.51600       -0.24000
O          2.72100       -0.61000        0.34200
C          3.36800        0.89200       -1.41500
C          3.02700        2.00000       -2.20700
C          3.72900        2.27500       -3.38400
C          4.78000        1.45400       -3.77700
C          5.14800        0.36800       -2.98900
C          4.44900        0.08800       -1.81200
H          1.31400       -1.13400        0.76000
H          0.03800       -1.15200       -0.30200
H          0.43600        0.17300        0.60800
H         -0.27600       -1.17200        1.40800
H          2.19300        2.63600       -1.91800
H          3.43600        3.12300       -3.99900
H          5.31500        1.66100       -4.70000
H          5.97100       -0.27500       -3.29000
H          4.72900       -0.77400       -1.21400
