20
18640-74-9.pdb
C          0.91100       -0.02800       -0.10200
C          2.44300       -0.03300       -0.06900
C          2.97100        1.32100       -0.54800
C          2.99400       -0.34700        1.33500
C          2.58700       -1.70900        1.81300
S          1.66100       -1.88800        3.25300
C          1.59800       -3.57900        2.98900
C          2.30000       -3.89600        1.84600
N          2.87200       -2.83000        1.18300
H          0.54800        0.21600       -1.10500
H          0.50100        0.70900        0.59700
H          0.50300       -1.00900        0.15900
H          2.79400       -0.80000       -0.77200
H          2.65100        2.13000        0.11800
H          2.60600        1.54700       -1.55500
H          4.06600        1.32200       -0.58200
H          2.67600        0.43000        2.04300
H          4.09200       -0.31300        1.31100
H          1.06800       -4.23900        3.65900
H          2.42100       -4.89500        1.44700
