17
1865-01-6.pdb
O          1.35800       -0.64500       -0.09000
N          2.37500        0.05400        0.00900
O          2.79600        0.81500       -0.87500
C          3.13900       -0.02300        1.26200
C          2.70400       -0.87000        2.29100
C          3.43500       -0.94700        3.48200
C          4.59400       -0.18400        3.62700
O          5.37700       -0.15900        4.80000
C          5.53600       -1.28000        5.60500
O          5.05100       -2.39000        5.45700
C          5.01800        0.67600        2.61000
C          4.29400        0.75500        1.41900
H          1.80500       -1.47400        2.18400
H          3.08300       -1.60300        4.27400
H          6.21300       -0.99800        6.42800
H          5.91200        1.28000        2.74300
H          4.64100        1.42100        0.63100
