24
1871-89-2.pdb
O          2.83300       -0.71600       -2.07400
C          2.37600        0.63200       -1.98100
C          2.94800        1.29500       -0.72800
N          4.39400        1.40100       -0.75600
C          5.05900        2.44100       -1.35800
O          4.54300        3.40900       -1.90400
C          6.60000        2.31800       -1.30000
O          7.12800        1.33000       -0.81000
N          7.26300        3.40400       -1.83000
C          8.71000        3.51500       -1.83400
C          9.33100        2.90100       -3.08800
O          8.87500        3.58800       -4.25300
H          2.45600       -1.08500       -2.89200
H          1.28300        0.61300       -1.92100
H          2.67400        1.16700       -2.88800
H          2.70000        0.70500        0.16000
H          2.52400        2.29900       -0.61600
H          4.95200        0.60300       -0.46400
H          6.69000        4.16200       -2.19100
H          9.11100        3.02300       -0.94200
H          8.93900        4.58400       -1.78200
H          9.07700        1.84200       -3.19100
H         10.42100        2.99500       -3.05100
H          7.91600        3.42900       -4.30500
