38
18741-85-0.pdb
N          3.38500       -0.52400       -0.57100
C          2.07900       -0.16900       -0.17100
C          1.81200        1.20800       -0.17700
C          0.51800        1.68700       -0.05500
C         -0.54600        0.80800        0.11000
C         -1.85000        1.33200        0.09000
C         -2.95700        0.50500        0.21800
C         -2.75800       -0.83700        0.49700
C         -1.45700       -1.35100        0.58800
C         -0.30600       -0.58700        0.26400
C          1.03000       -1.12200        0.04200
C          1.32600       -2.63700        0.02200
C          2.45300       -3.17200        0.72600
N          3.25900       -2.41200        1.59800
C          2.71000       -4.55000        0.72700
C          1.84500       -5.44200        0.11700
C          0.70700       -4.98500       -0.54300
C         -0.20900       -5.93600       -1.01800
C         -1.37700       -5.54700       -1.65800
C         -1.56900       -4.20500       -1.93800
C         -0.62500       -3.25700       -1.52300
C          0.48200       -3.58900       -0.69300
H          4.11000        0.11200       -0.25700
H          3.62600       -1.50300       -0.46000
H          2.61500        1.92200       -0.33800
H          0.35000        2.75900       -0.12100
H         -2.01600        2.39700       -0.08200
H         -3.95900        0.90900        0.11800
H         -3.61300       -1.49900        0.61900
H         -1.36500       -2.40200        0.84500
H          3.16600       -1.40500        1.51600
H          4.22200       -2.72800        1.66400
H          3.57000       -4.94500        1.26200
H          2.05900       -6.50600        0.18800
H         -0.04100       -6.99900       -0.85000
H         -2.11800       -6.28700       -1.94500
H         -2.46800       -3.88200       -2.45800
H         -0.80600       -2.22500       -1.80500
