18
1875-48-5.pdb
N          1.18900        0.22600        0.00700
N          2.57300        0.00700        0.03800
C          3.50300        1.02100        0.05700
O          3.33400        2.22600        0.09400
C          4.80900        0.35500        0.06400
C          6.08500        0.88600        0.06400
C          7.15400       -0.01800        0.06800
C          6.92700       -1.41000        0.07700
C          5.62700       -1.92500        0.08500
C          4.58800       -1.01500        0.07700
C          3.14300       -1.24400        0.08900
O          2.62300       -2.34100        0.17400
H          1.02400        1.20500        0.25500
H          0.77100       -0.34000        0.74800
H          6.25000        1.95900        0.05800
H          8.17700        0.35600        0.06400
H          7.77600       -2.09200        0.07700
H          5.43700       -2.99300        0.09200
