23
1877-75-4.pdb
C          1.28200        0.48500       -0.55200
O          2.40400       -0.03900        0.15100
C          3.06300       -1.08200       -0.44000
C          2.71000       -1.69400       -1.64200
C          3.47000       -2.75700       -2.14800
C          4.59000       -3.21600       -1.45600
O          5.38300       -4.26200       -1.84800
C          5.46500       -4.46600       -3.26300
C          6.40500       -5.62600       -3.55300
O          6.91000       -6.20200       -2.43500
O          6.67500       -6.01900       -4.67700
C          4.93200       -2.61900       -0.24200
C          4.17700       -1.55400        0.25700
H          0.88300        1.32400        0.02800
H          0.49000       -0.26500       -0.64100
H          1.57500        0.87000       -1.53400
H          1.84200       -1.37700       -2.21000
H          3.13700       -3.21200       -3.07400
H          5.87600       -3.57100       -3.74200
H          4.49100       -4.74700       -3.67500
H          6.56300       -5.73800       -1.64200
H          5.79400       -2.97000        0.31800
H          4.45900       -1.08700        1.19900
