18
1877-77-6.pdb
N          2.34200       -0.01700       -0.17100
C          0.95400        0.00200        0.00400
C          0.25700        1.21100       -0.03500
C         -1.13700        1.22900       -0.01200
C         -1.85300        0.03100        0.01200
C         -1.17900       -1.19500        0.01200
C         -1.91900       -2.50800       -0.05100
O         -3.16900       -2.44800        0.62600
C          0.22600       -1.19200       -0.02500
H          2.80700        0.82400        0.15800
H          2.78900       -0.86200        0.17000
H          0.79600        2.15300       -0.09500
H         -1.66800        2.17600       -0.03700
H         -2.94100        0.06000       -0.00200
H         -1.33300       -3.30100        0.42400
H         -2.10000       -2.78300       -1.09500
H         -2.98700       -2.09600        1.51400
H          0.76100       -2.13700       -0.08800
