16
1877-72-1.pdb
O          1.07600       -0.10400        0.08500
C          2.40100        0.05700       -0.10100
O          2.99000       -0.33900       -1.09200
C          3.09100        0.77800        0.99700
C          2.65100        0.69600        2.32400
C          3.37200        1.33100        3.33600
C          4.54100        2.03100        3.03000
C          4.99800        2.10200        1.70800
C          4.26600        1.48200        0.69000
C          6.22800        2.77500        1.41100
N          7.23300        3.31600        1.18700
H          0.68800        0.38700        0.83000
H          1.78000        0.10500        2.59600
H          3.04000        1.25500        4.37000
H          5.10700        2.50000        3.83300
H          4.61800        1.52000       -0.34100
