23
1878-85-9.pdb
C          0.93900       -0.41100        0.16400
O          2.29100        0.00700        0.00800
C          2.98900        0.29700        1.15000
C          2.66200       -0.24100        2.40300
C          3.45900        0.01700        3.52200
C          4.60000        0.80000        3.39900
C          4.93600        1.34100        2.16000
C          4.12700        1.11600        1.03700
O          4.58500        1.74000       -0.09700
C          3.59100        2.12400       -1.05400
C          4.10000        3.32700       -1.83200
O          5.33400        3.73600       -1.44000
O          3.47100        3.88800       -2.71700
H          0.49600       -0.48300       -0.83400
H          0.36400        0.32700        0.73400
H          0.87600       -1.40300        0.62100
H          1.80400       -0.89000        2.53900
H          3.19400       -0.41100        4.48600
H          5.23000        0.98800        4.26500
H          5.83100        1.95100        2.07200
H          2.65900        2.43600       -0.56800
H          3.44400        1.30900       -1.76900
H          5.65300        3.14400       -0.72300
