23
18781-31-2.pdb
C          1.21800        0.13400        0.86800
C          2.39600       -0.04400       -0.05400
O          2.78600       -1.16300       -0.38100
C          3.08100        1.17200       -0.58400
C          2.66300        2.45500       -0.24100
C          3.30100        3.57700       -0.78100
C          4.37900        3.43600       -1.68900
C          5.16500        4.43500       -2.38400
C          4.98000        5.91300       -2.27600
C          6.12400        3.85000       -3.18600
S          6.10900        2.15100       -3.11300
C          4.79200        2.13900       -2.00800
C          4.16100        1.00200       -1.46100
H          0.83200       -0.84800        1.15800
H          0.41700        0.67500        0.35600
H          1.52500        0.66000        1.77600
H          1.83600        2.62400        0.44300
H          2.94900        4.56700       -0.50100
H          4.17300        6.18300       -1.59000
H          4.74100        6.33700       -3.25600
H          5.89900        6.38200       -1.91000
H          6.84500        4.35000       -3.82000
H          4.50500        0.00500       -1.73000
