34
18800-74-3.pdb
C          2.34200       -1.43300        1.30200
C          2.49000       -0.22600        0.36500
C          3.25200       -0.59400       -0.91900
C          1.07800        0.23100       -0.04400
O          3.09200        0.90300        1.06100
C          4.36600        0.78200        1.51500
O          5.05400       -0.21500        1.39700
N          4.78800        1.93200        2.11200
C          6.20800        2.15300        2.40900
C          6.82500        2.95400        1.24700
C          8.30100        3.31800        1.36500
C          9.17400        2.07900        1.52500
O          9.64400        1.60000        0.46200
O          9.31200        1.70400        2.72800
C          6.35300        2.88800        3.75500
N          7.52100        2.64700        4.42400
O          5.51300        3.66800        4.20400
H          1.81000       -2.25500        0.81100
H          1.79200       -1.15400        2.20700
H          3.30800       -1.82400        1.63300
H          2.80200       -1.46600       -1.40900
H          4.30300       -0.83200       -0.73900
H          3.24400        0.23900       -1.63100
H          0.54200       -0.55800       -0.58500
H          1.12100        1.11700       -0.68700
H          0.48500        0.51000        0.83300
H          4.14700        2.71000        2.18300
H          6.69300        1.17400        2.49900
H          6.26200        3.89000        1.12600
H          6.67400        2.39000        0.31700
H          8.46800        3.99700        2.20900
H          8.61300        3.86500        0.46800
H          8.30500        2.18600        3.92300
H          7.77000        3.21300        5.21600
