20
1882-69-5.pdb
C          1.40700        0.39800        0.59800
O          2.54000        0.02200       -0.17100
C          3.12200        1.00100       -0.93100
C          2.66400        2.31500       -1.05200
C          3.33400        3.21600       -1.88200
C          4.48500        2.80500       -2.57700
C          4.99500        1.51200       -2.43300
C          4.27700        0.61000       -1.62200
C          6.30000        1.10500       -3.04300
O          7.17200        2.01600       -3.16100
O          6.44200       -0.12200       -3.33000
N          5.06600        3.75800       -3.51600
O          5.33300        4.88800       -3.07300
O          5.03400        3.45500       -4.72100
H          1.06400       -0.48300        1.14900
H          0.58300        0.72800       -0.04300
H          1.66800        1.16800        1.33300
H          1.78500        2.66600       -0.52300
H          2.95800        4.23000       -1.99200
H          4.64900       -0.41000       -1.51900
