36
18822-59-8.pdb
C         13.71700        5.83800       -0.35900
C         13.63300        6.42000        1.07200
C         14.46200        5.69500        2.15500
C         14.27900        7.82000        0.94700
O         12.26400        6.60800        1.51200
C         11.44400        5.51900        1.66600
C         11.81500        4.20400        1.41900
C         10.92700        3.15400        1.52400
C          9.63600        3.34500        1.99300
C          8.72000        2.15000        2.16000
C          9.36700        0.89200        2.77900
N         10.09300        1.25600        4.06700
C         10.32400        0.06000        1.87300
O         11.41800       -0.17200        2.48400
O          9.92700       -0.23100        0.72500
C          9.22300        4.66800        2.24400
C         10.12400        5.74700        2.06600
H         14.75400        5.67000       -0.66100
H         13.25300        6.53200       -1.07100
H         13.18600        4.90100       -0.52500
H         15.49900        5.55000        1.84100
H         14.07400        4.72200        2.46100
H         14.46000        6.28500        3.08200
H         15.27400        7.74300        0.49100
H         14.39900        8.30200        1.92300
H         13.66900        8.48900        0.33200
H         12.81000        3.91500        1.11100
H         11.30100        2.18000        1.21400
H          8.29300        1.90800        1.17600
H          7.88000        2.44600        2.80500
H          8.57800        0.19800        3.08500
H         10.87600        1.87200        3.81600
H         10.59500        0.38700        4.32900
H          9.52700        1.64200        4.81700
H          8.20300        4.88600        2.54400
H          9.78300        6.76500        2.24300
