32
18856-68-3.pdb
C          2.64900       -0.05100        1.14500
C          3.10100       -0.60300       -0.19800
O          3.44900        0.45300       -1.10900
C          4.63200        1.08000       -0.88200
O          5.40400        0.79000        0.02300
C          4.90100        2.14500       -1.87100
C          4.00800        2.85200       -2.59600
N          2.62200        2.94500       -2.69000
C          1.68700        2.71200       -1.59300
C          1.99000        3.51000       -3.88900
C          6.31500        2.48000       -2.19900
O          6.68300        3.56500       -2.62800
O          7.09600        1.37200       -2.11700
C          8.37700        1.45700       -2.75900
C          8.23700        0.84500       -4.14000
H          2.29100       -0.85500        1.79400
H          1.84400        0.68000        1.01500
H          3.46400        0.46400        1.66400
H          2.27200       -1.15300       -0.65600
H          3.93400       -1.30600       -0.08600
H          4.43200        3.53900       -3.33300
H          2.18700        2.49300       -0.64800
H          1.01100        1.88900       -1.84400
H          1.08100        3.60800       -1.41900
H          2.71800        3.71100       -4.68300
H          1.48200        4.45000       -3.65100
H          1.25800        2.80100       -4.28900
H          9.09200        0.88300       -2.16000
H          8.75300        2.48400       -2.81800
H          7.91500       -0.19900       -4.05900
H          9.18000        0.88300       -4.69100
H          7.46600        1.36700       -4.71800
