19
1887-60-1.pdb
C          0.98500       -0.09800        0.08500
C          2.49600       -0.06500        0.08500
C          3.18100       -1.30500        0.08500
C          4.59600       -1.25600        0.08500
N          5.42100       -2.31400        0.08600
S          6.96600       -1.70100        0.08600
N          6.65400       -0.06800        0.08500
C          5.31800        0.05900        0.08400
C          4.60100        1.27900        0.08400
C          3.18700        1.19200        0.08500
C          2.40600        2.48600        0.08500
H          0.60300       -1.12500        0.08600
H          0.59500        0.39700       -0.80900
H          0.59600        0.39800        0.98000
H          2.66500       -2.25900        0.08500
H          5.12700        2.22600        0.08400
H          3.07000        3.35700        0.08400
H          1.78000        2.55000        0.98100
H          1.77800        2.55000       -0.80900
