26
18881-17-9.pdb
O          1.49400       -1.10900        2.68600
C          1.89400       -1.98000        1.62600
C          2.81700       -1.18600        0.69400
C          3.49800       -2.06200       -0.35700
C          4.66600       -1.37900       -1.02800
C          5.19800       -1.94400       -2.19600
C          6.30100       -1.36500       -2.82000
C          6.88200       -0.21700       -2.28800
C          6.36600        0.35300       -1.12400
C          5.26600       -0.22600       -0.47500
C          4.71200        0.41800        0.76600
N          3.86300       -0.51600        1.54800
H          0.77400       -1.56000        3.17300
H          1.00900       -2.33400        1.08800
H          2.41200       -2.83600        2.07100
H          2.25300       -0.36600        0.23100
H          2.75400       -2.34800       -1.11000
H          3.87300       -2.98300        0.10700
H          4.76400       -2.84500       -2.62800
H          6.70900       -1.80900       -3.72600
H          7.74100        0.23200       -2.78300
H          6.83900        1.25300       -0.73400
H          4.09000        1.28000        0.50400
H          5.51500        0.73800        1.43900
H          3.36100       -0.03000        2.31000
H          4.45800       -1.21900        2.00200
