27
18881-04-4.pdb
C          0.91500        0.24300       -0.14400
C          2.39400        0.05100       -0.05300
C          2.99500       -1.15400       -0.01900
C          4.48300       -1.26800        0.17800
O          5.04700       -1.93800       -0.94000
C          5.08400        0.14200        0.28200
C          4.54900        1.09600       -0.85700
C          3.30500        1.26600        0.07900
C          4.34900        1.14100        1.29100
C          5.30400        2.30300        1.64400
C          3.69000        0.69000        2.60000
H          0.38900       -0.71800       -0.19100
H          0.65200        0.81200       -1.04000
H          0.54700        0.77800        0.73700
H          2.42300       -2.07700       -0.07900
H          4.71000       -1.84600        1.07900
H          4.63300       -1.56800       -1.73800
H          6.17700        0.11300        0.36900
H          4.36900        0.65300       -1.84100
H          5.12000        2.01500       -1.02900
H          2.78300        2.21900       -0.00600
H          5.92700        2.62900        0.80800
H          5.99700        1.99000        2.43600
H          4.74500        3.17000        2.00500
H          2.89100       -0.04200        2.47000
H          3.23600        1.55100        3.10900
H          4.42800        0.25100        3.27700
