40
1889-67-4.pdb
C          0.78100       -0.08000        0.19200
C          2.33100        0.01300        0.01000
C          2.75800       -1.44300       -0.33300
C          2.67600        0.90100       -1.22500
C          1.68900        1.57200       -1.97400
C          2.01600        2.43700       -3.02500
C          3.34500        2.66800       -3.35000
C          4.33900        1.97200       -2.67700
C          4.00300        1.06800       -1.66100
C          3.01400        0.52900        1.40500
C          2.58300       -0.38500        2.60400
C          4.56800        0.36300        1.44200
C          2.65300        2.01100        1.73300
C          1.53000        2.35200        2.50900
C          1.26600        3.67300        2.88100
C          2.10800        4.69800        2.47400
C          3.20000        4.40200        1.66700
C          3.45900        3.08000        1.29100
H          0.29800       -0.49200       -0.70300
H          0.32800        0.89700        0.39100
H          0.49400       -0.75000        1.00700
H          2.32500       -1.76700       -1.28800
H          2.40900       -2.15600        0.42300
H          3.84100       -1.56200       -0.42600
H          0.63000        1.44800       -1.76600
H          1.22500        2.94000       -3.57400
H          3.60100        3.37500       -4.13300
H          5.38200        2.13000       -2.93700
H          4.81500        0.50700       -1.21200
H          2.89600       -1.42400        2.45000
H          1.50700       -0.40000        2.79000
H          3.05200       -0.05000        3.53900
H          4.87500       -0.67300        1.26400
H          4.96200        0.63900        2.42900
H          5.11200        0.98900        0.73600
H          0.83500        1.59200        2.85900
H          0.40000        3.89600        3.49800
H          1.91300        5.72100        2.77600
H          3.85800        5.19900        1.32900
H          4.31600        2.91400        0.64600
