26
1891-10-7.pdb
C          1.39000       -0.14500        0.54200
O          2.58600        0.06200       -0.19900
C          3.18800        1.28400       -0.08100
C          2.75000        2.34100        0.71100
C          3.46300        3.54400        0.72400
C          4.62700        3.71600       -0.04500
C          5.25800        5.03800        0.01700
C          4.96000        6.00500       -0.85800
N          5.60600        7.29300       -0.73600
O          6.43900        7.46300        0.16200
O          5.26600        8.14800       -1.56400
C          5.08600        2.64200       -0.82400
O          6.16900        2.61200       -1.65900
C          7.33100        3.33900       -1.28200
C          4.34900        1.44500       -0.84100
H          1.04700       -1.16500        0.34600
H          0.60100        0.54100        0.21700
H          1.57200       -0.05800        1.61900
H          1.85700        2.26600        1.32300
H          3.09200        4.35800        1.34700
H          5.96400        5.17700        0.83200
H          4.27200        5.97500       -1.68800
H          8.20300        2.78700       -1.64900
H          7.44800        3.44100       -0.19900
H          7.32900        4.31400       -1.77700
H          4.69400        0.61800       -1.45800
