25
18927-05-4.pdb
C          5.50800       -1.50400       -1.90400
O          4.84600       -0.69400       -0.93100
C          5.39500        0.54800       -0.78400
O          6.35700        0.95900       -1.42100
C          4.63000        1.30800        0.27700
C          5.10700        2.72400        0.50000
C          4.57600        3.77800       -0.25200
C          4.99100        5.08700       -0.01600
C          5.94400        5.35900        0.96700
C          6.50000        4.31800        1.71100
O          7.42900        4.45300        2.70700
C          7.83500        5.77800        3.02600
C          6.09000        3.00400        1.46200
H          4.93700       -2.42900       -2.02700
H          6.51500       -1.76000       -1.55600
H          5.55100       -0.99500       -2.87100
H          4.69700        0.75100        1.21900
H          3.57100        1.33300       -0.01100
H          3.83300        3.58800       -1.02300
H          4.56600        5.90300       -0.59600
H          6.23000        6.39300        1.12500
H          8.47700        5.73000        3.91100
H          6.97900        6.41300        3.27900
H          8.42000        6.21100        2.20800
H          6.53900        2.19600        2.03700
