19
18937-79-6.pdb
C          3.20000        0.74800        1.64400
C          2.56200        0.08500        0.44100
C          2.96200        0.73400       -0.88700
C          2.24800        0.04100       -1.96700
C          1.56400       -0.63000       -2.69000
C          0.66000       -1.52100       -3.37200
O          0.29700       -1.32300       -4.52000
O          0.27300       -2.53600       -2.55800
C         -0.70200       -3.41000       -3.11800
H          2.76600        0.34000        2.56400
H          3.03100        1.82900        1.63900
H          4.27800        0.56200        1.66700
H          1.47000        0.12500        0.55200
H          2.83300       -0.98000        0.43100
H          4.04500        0.66700       -1.03600
H          2.69400        1.79700       -0.88400
H         -1.09900       -4.03000       -2.30900
H         -0.23600       -4.06300       -3.86200
H         -1.53300       -2.84900       -3.55600
