46
18942-46-6.pdb
C          7.91600      -10.15100        5.86600
O          6.72700       -9.47900        5.46500
C          6.69700       -8.98500        4.19000
C          7.72300       -9.08200        3.25100
C          7.56700       -8.52400        1.97400
C          6.38700       -7.85400        1.62000
C          6.23500       -7.23500        0.25200
S          5.40700       -8.36600       -0.92000
C          5.53600       -7.34100       -2.44000
C          4.87500       -7.98200       -3.67800
N          4.87400       -7.06500       -4.83000
C          4.15200       -5.91100       -4.82300
O          3.51900       -5.53600       -3.85100
O          4.24900       -5.26000       -6.01100
C          3.54900       -3.99200       -6.17000
C          4.09700       -2.92200       -5.21200
C          3.82000       -3.52000       -7.61000
C          2.03300       -4.17600       -6.01300
C          5.58700       -9.26500       -4.13000
O          5.54400      -10.28400       -3.24200
O          6.11300       -9.39400       -5.22900
C          5.35500       -7.77300        2.56400
C          5.51500       -8.33200        3.83700
H          7.78100      -10.48900        6.89800
H          8.77700       -9.47400        5.84700
H          8.09500      -11.03700        5.24700
H          8.65800       -9.58400        3.47700
H          8.38300       -8.61500        1.26100
H          7.22200       -6.96700       -0.14100
H          5.65700       -6.30800        0.33100
H          6.59300       -7.13700       -2.64000
H          5.05500       -6.38800       -2.20200
H          3.82500       -8.23000       -3.47900
H          5.25300       -7.38500       -5.71400
H          5.15300       -2.71400       -5.42300
H          4.04900       -3.22800       -4.16400
H          3.53800       -1.98500       -5.30700
H          4.89500       -3.43900       -7.80600
H          3.36100       -2.54300       -7.80200
H          3.42200       -4.23300       -8.34000
H          1.75400       -4.50700       -5.01000
H          1.66400       -4.94000       -6.70600
H          1.49800       -3.24100       -6.20600
H          5.16700      -10.03600       -2.36800
H          4.42200       -7.27200        2.31800
H          4.70500       -8.25800        4.56100
