24
18962-05-5.pdb
C          1.13600       -0.55100       -0.04500
C          2.39600       -0.98200       -0.79100
C          2.03800       -1.95900       -1.90800
O          2.98700        0.19900       -1.34600
C          4.33000        0.21900       -1.60100
C          5.24100       -0.79400       -1.30100
C          6.59700       -0.64000       -1.60600
C          7.04600        0.52800       -2.22200
C          8.47900        0.68300       -2.55300
O          9.30400       -0.18300       -2.29300
C          6.14600        1.55000       -2.53000
C          4.79200        1.39000       -2.21500
H          0.62600       -1.41300        0.39700
H          0.43800       -0.02800       -0.70800
H          1.39400        0.14700        0.76000
H          3.04600       -1.45600       -0.04800
H          1.50800       -1.45000       -2.72100
H          1.41400       -2.77900       -1.53800
H          2.94100       -2.39500       -2.34800
H          4.94100       -1.72300       -0.83000
H          7.29700       -1.43600       -1.36100
H          8.76900        1.62200       -3.05000
H          6.47700        2.46600       -3.01000
H          4.08700        2.18500       -2.45200
