32
18979-55-0.pdb
C          1.00900       -0.01700       -0.03400
C          2.52800       -0.04700       -0.05200
C          3.07300       -0.10700       -1.48000
C          4.60200       -0.13800       -1.48600
C          5.16300       -0.19900       -2.90600
C          6.69000       -0.24900       -2.89900
O          7.14300       -0.25700       -4.25300
C          8.49400       -0.30800       -4.45800
C          9.47900       -0.30300       -3.46700
C         10.83400       -0.35600       -3.81800
C         11.19700       -0.41400       -5.15900
O         12.50300       -0.46800       -5.54300
C         10.22800       -0.41900       -6.15400
C          8.87900       -0.36500       -5.80100
H          0.64300        0.02500        0.99700
H          0.59300       -0.91400       -0.50500
H          0.62600        0.86000       -0.56600
H          2.87700       -0.91700        0.51600
H          2.91100        0.84600        0.45500
H          2.72000        0.76400       -2.04600
H          2.68500       -1.00000       -1.98400
H          4.95300       -1.00800       -0.91700
H          4.98800        0.75500       -0.97900
H          4.82800        0.67100       -3.48500
H          4.77300       -1.07900       -3.43300
H          7.02100       -1.16200       -2.38900
H          7.08000        0.63400       -2.37800
H          9.22800       -0.25600       -2.41300
H         11.58500       -0.35100       -3.03400
H         13.06200       -0.45400       -4.74900
H         10.51900       -0.46500       -7.19900
H          8.12000       -0.36800       -6.57900
