42
18997-57-4.pdb
C         10.17700        1.59600       -1.11700
C          9.11600        1.70700       -2.17200
C          9.39500        1.43700       -3.45800
C          8.39400        1.50500       -4.53600
O          8.69700        1.23500       -5.69200
O          7.11600        1.88800       -4.17000
C          6.78700        2.13000       -2.82200
C          5.44700        2.41700       -2.55300
C          5.00800        2.65100       -1.24500
O          3.69100        2.94600       -1.18000
C          2.85000        3.02500       -0.03200
O          2.36100        1.76800        0.44300
C          2.93000        1.32200        1.67100
C          2.36200       -0.08300        1.92400
O          0.95700       -0.02400        2.17200
C          2.55800        2.29400        2.79300
O          3.10600        1.86000        4.04400
C          3.11000        3.69600        2.49000
O          2.43600        4.69200        3.30200
C          3.03100        4.15100        1.01800
O          4.12500        5.03400        0.73400
C          5.94300        2.61600       -0.22000
C          7.30100        2.34000       -0.50500
C          7.73800        2.07100       -1.81100
H         11.16200        1.37500       -1.54700
H          9.93900        0.78600       -0.42100
H         10.27600        2.53000       -0.55800
H         10.38400        1.13200       -3.78800
H          4.73600        2.45600       -3.37500
H          1.94300        3.37900       -0.53800
H          4.01300        1.23300        1.56200
H          2.51300       -0.72500        1.05000
H          2.83800       -0.55500        2.78700
H          0.55500        0.31800        1.35100
H          1.47100        2.36500        2.91900
H          2.58000        1.09800        4.34900
H          4.15400        3.74300        2.82500
H          1.49600        4.45900        3.36900
H          2.14400        4.79300        0.93300
H          4.12100        5.71700        1.43100
H          5.66600        2.83200        0.80500
H          8.00700        2.34700        0.32200
