23
19037-69-5.pdb
C         -1.46200        2.89400       -0.01700
C         -1.30500        1.40100       -0.00300
C         -2.37400        0.59100       -0.00900
C         -2.28100       -0.87500       -0.00100
O         -3.28900       -1.56900        0.01200
O         -1.00400       -1.41100       -0.00400
C          0.15000       -0.59900       -0.01200
C          0.03300        0.79400        0.00800
C          1.21500        1.55400        0.03300
C          2.47600        0.94100        0.02800
C          2.57400       -0.44800       -0.00800
O          3.80300       -1.03800       -0.04900
C          1.40800       -1.21200       -0.02400
N          1.49800       -2.65100       -0.06200
O          1.08200       -3.21500       -1.08400
O          1.96600       -3.21800        0.93700
H         -2.51500        3.19400       -0.03900
H         -0.98500        3.32700       -0.90200
H         -1.01700        3.33900        0.88000
H         -3.38900        0.97700       -0.02000
H          1.18100        2.64200        0.05400
H          3.36400        1.56700        0.04300
H          4.50300       -0.36800        0.03300
