31
1903-23-7.pdb
C          3.17500       -1.83100       -1.63800
C          2.70100       -0.63200       -0.83700
O          3.13300        0.54600       -1.53200
C          4.33300        1.03000       -1.12500
O          4.90900        0.75000       -0.08600
C          4.86700        1.87800       -2.21500
C          6.17800        2.06100       -2.48500
C          6.60100        2.96100       -3.63000
C          7.13200        4.30200       -3.12700
C          8.60100        4.32700       -2.70000
C          9.16600        3.11400       -1.96500
C          8.20500        2.41100       -1.01100
C          7.31700        1.40400       -1.74200
H          2.90300       -2.77000       -1.15100
H          4.26300       -1.80300       -1.77000
H          2.73800       -1.81000       -2.64200
H          3.07100       -0.67300        0.19300
H          1.60600       -0.61500       -0.78800
H          4.10600        2.34900       -2.82800
H          5.73900        3.15600       -4.28000
H          7.34100        2.45400       -4.26100
H          6.51100        4.65800       -2.29400
H          7.00900        5.04700       -3.92400
H          8.74800        5.21500       -2.07100
H          9.22400        4.49600       -3.58900
H         10.04300        3.44700       -1.39500
H          9.55200        2.39400       -2.69800
H          7.60900        3.13600       -0.44400
H          8.80200        1.85600       -0.27700
H          6.96700        0.66700       -1.01500
H          7.90900        0.81800       -2.45400
