25
1907-46-6.pdb
C          1.00800        0.22000        0.12800
C          2.51300       -0.01800        0.10900
C          2.95900       -1.50000        0.22400
O          2.49000       -1.99000        1.49600
C          2.36700       -2.40800       -0.87900
C          2.82800       -2.10100       -2.29700
C          4.51300       -1.52900        0.27200
C          5.11400       -2.90300        0.42400
C          5.98100       -3.45100       -0.43900
H          0.80600        1.29500        0.19000
H          0.52900       -0.25200        0.99000
H          0.53300       -0.15000       -0.78500
H          2.93300        0.53700        0.95900
H          2.93100        0.43600       -0.79600
H          1.53000       -2.12400        1.43400
H          1.27200       -2.35900       -0.84600
H          2.59300       -3.45800       -0.65300
H          2.68200       -1.04900       -2.55600
H          2.25500       -2.70100       -3.01200
H          3.88300       -2.34800       -2.43700
H          4.85300       -0.94600        1.13800
H          4.92200       -1.03500       -0.61900
H          4.82200       -3.46000        1.31200
H          6.30700       -2.92800       -1.33100
H          6.38600       -4.44300       -0.26200
