36
191-07-1.pdb
C         -3.26800        1.47100        0.11100
C         -2.46700        2.61500        0.08000
C         -1.07100        2.50800        0.04000
C         -0.25200        3.64500       -0.01300
C          1.14000        3.52200       -0.02200
C          1.74700        2.26000        0.02300
C          3.14000        2.12100        0.05400
C          3.72900        0.85400        0.06200
C          2.93900       -0.30200        0.00800
C          3.51500       -1.57600       -0.06600
C          2.71300       -2.71700       -0.15000
C          1.31600       -2.61200       -0.12500
C          0.49700       -3.74700       -0.18800
C         -0.89400       -3.62700       -0.14100
C         -1.50000       -2.36700       -0.04700
C         -2.89400       -2.22900       -0.00100
C         -3.48300       -0.96400        0.06800
C         -2.69300        0.19300        0.07900
C         -1.28500        0.07000        0.04500
C         -0.47300        1.22700        0.04400
C          0.93500        1.10500        0.02900
C          1.53200       -0.17800        0.00800
C          0.72000       -1.33400       -0.03600
C         -0.68900       -1.21100       -0.00800
H         -4.34900        1.58800        0.14500
H         -2.94600        3.59200        0.09000
H         -0.69200        4.63900       -0.05400
H          1.74600        4.42400       -0.07200
H          3.78300        2.99900        0.07100
H          4.81400        0.77900        0.09200
H          4.59700       -1.69300       -0.08000
H          3.19100       -3.69000       -0.23800
H          0.93500       -4.73800       -0.27500
H         -1.50100       -4.52800       -0.18700
H         -3.53600       -3.10700       -0.02400
H         -4.56800       -0.89100        0.09900
