25
19116-90-6.pdb
C          1.18600       -0.09700       -0.64800
O          2.38700        0.01000        0.10400
C          3.07100       -1.14900        0.34300
C          2.64700       -2.43400        0.01000
C          3.44200       -3.54800        0.31500
C          4.67200       -3.39500        0.96000
O          5.49200       -4.43100        1.31000
C          5.06800       -5.75500        1.02100
C          5.09100       -2.09900        1.28400
C          4.29600       -0.98300        0.98500
S          6.63600       -1.83700        2.09300
N          6.47800       -2.74300        3.50000
O          7.70200       -2.43000        1.32200
O          6.70400       -0.46500        2.55300
H          0.81400        0.91600       -0.83300
H          0.41900       -0.63800       -0.08400
H          1.36700       -0.56600       -1.62100
H          1.69600       -2.61000       -0.48500
H          3.06200       -4.52600        0.03300
H          5.80300       -6.44100        1.45000
H          5.03900       -5.92300       -0.06000
H          4.10000       -5.97700        1.48500
H          4.62400        0.02000        1.25200
H          7.13100       -3.52300        3.48000
H          6.52700       -2.14200        4.31900
