24
19130-96-2.pdb
O          5.01000       -0.06000       -2.68500
C          4.46500       -0.14000       -1.36600
C          2.92400       -0.14300       -1.43300
N          2.49400        1.05100       -2.19500
C          1.05000        1.09100       -2.41700
C          0.49100       -0.17700       -3.07500
O         -0.92900       -0.07100       -3.20100
C          0.88800       -1.40200       -2.24000
O          0.42300       -2.62400       -2.84400
C          2.40900       -1.46800       -2.03600
O          2.74300       -2.54100       -1.14500
H          5.93400        0.23100       -2.58000
H          4.81000        0.73300       -0.80100
H          4.85400       -1.04300       -0.87700
H          2.55400       -0.06200       -0.40200
H          3.00000        1.04100       -3.08600
H          0.80900        1.96000       -3.04000
H          0.53900        1.27200       -1.46400
H          0.88300       -0.27600       -4.09400
H         -1.33300       -0.33100       -2.35400
H          0.38600       -1.36500       -1.26400
H          0.72200       -2.63100       -3.77300
H          2.89400       -1.68500       -2.99600
H          1.91600       -3.00800       -0.91000
