22
19141-40-3.pdb
C          0.93500       -0.00000       -0.15300
C          2.46100        0.06900       -0.04400
C          2.96400        1.48600       -0.37400
O          4.38800        1.54000       -0.39800
C          2.93500       -0.40100        1.32400
C          3.76800       -1.52500        1.42300
C          4.24800       -1.95000        2.66400
C          3.90000       -1.25700        3.82100
C          3.06800       -0.14300        3.73900
C          2.58600        0.28200        2.50000
H          0.60500        0.29400       -1.15500
H          0.44300        0.66200        0.56700
H          0.57600       -1.01900        0.03200
H          2.88000       -0.61000       -0.80000
H          2.60200        2.23300        0.34100
H          2.61500        1.78500       -1.36800
H          4.69800        1.28400        0.49000
H          4.05900       -2.07600        0.53100
H          4.89600       -2.82100        2.72500
H          4.27700       -1.58600        4.78500
H          2.79500        0.39700        4.64200
H          1.94100        1.15700        2.46300
