21
19156-54-8.pdb
O          2.86800       -1.13200        0.03700
C          2.39600        0.03500       -0.13300
O          1.29400        0.46400        0.33900
C          3.20800        0.98800       -0.94000
C          4.42000        0.63100       -1.49800
S          5.15100        1.91400       -2.35500
C          3.87300        2.97000       -1.97000
C          3.86900        4.39600       -2.42200
C          2.79900        5.20300       -1.67300
C          1.47900        4.43100       -1.56100
C          1.65400        3.11800       -0.78200
C          2.87100        2.35800       -1.23400
H          4.89900       -0.33600       -1.42800
H          3.66300        4.42900       -3.49900
H          4.84800        4.86000       -2.25800
H          2.63300        6.15600       -2.18900
H          3.15800        5.44500       -0.66500
H          1.10400        4.21200       -2.56900
H          0.72200        5.05100       -1.06600
H          0.74400        2.52400       -0.90900
H          1.76600        3.34300        0.28600
