30
1916-07-0.pdb
C          1.37300       -0.21100        2.72000
O          2.78400       -0.09300        2.54800
C          3.18100        0.32100        1.32100
O          2.45100        0.58000        0.37700
C          4.66500        0.43800        1.27500
C          5.27400        0.89800        0.10000
C          6.67100        1.03800        0.01400
O          7.29100        1.50400       -1.11500
C          6.50500        1.84800       -2.24900
C          7.47900        0.69200        1.12600
O          8.84800        0.71200        1.17500
C          9.61400        1.10400        0.04800
C          6.85100        0.24600        2.31000
O          7.46000       -0.15600        3.47400
C          8.64800        0.52900        3.85200
C          5.46100        0.11100        2.37000
H          1.18100       -0.42400        3.77600
H          0.98700       -1.04200        2.12200
H          0.86900        0.72500        2.46000
H          4.63000        1.14000       -0.74000
H          7.18100        2.25200       -3.00900
H          5.77800        2.63000       -2.00900
H          6.01900        0.96400       -2.67100
H         10.66900        0.99400        0.31900
H          9.45200        2.15800       -0.19100
H          9.43600        0.44500       -0.80900
H          8.76200        0.41500        4.93400
H          8.59700        1.60200        3.63800
H          9.52200        0.06500        3.38700
H          5.01600       -0.25100        3.29500
