24
1916-08-1.pdb
C          0.94600        0.14900       -0.00300
O          2.36300        0.05000       -0.04000
C          3.10700        1.19900       -0.04500
C          2.52600        2.47700       -0.02800
C          3.31400        3.63700       -0.04100
C          4.70400        3.53600       -0.05200
C          5.28600        2.27100       -0.07600
O          6.65500        2.16300       -0.09900
C          4.51200        1.09000       -0.07000
O          5.26400       -0.05800       -0.08300
C          4.62500       -1.32200       -0.03600
C          2.61400        4.94600        0.01300
O          3.26400        5.95300       -0.60300
O          1.52300        5.08400        0.54200
H          0.54200       -0.86800       -0.00700
H          0.56300        0.66000       -0.89300
H          0.60700        0.63700        0.91600
H          1.44600        2.60300        0.00200
H          5.32900        4.42100       -0.00900
H          7.06700        3.03900       -0.04700
H          5.40700       -2.08800       -0.02100
H          4.02400       -1.49500       -0.93400
H          4.04300       -1.44400        0.88300
H          4.01400        5.69000       -1.16500
