23
19219-98-8.pdb
C          1.15200        0.10900        0.05400
C          2.62000       -0.04800        0.05000
O          3.37100        1.10000        0.04800
C          4.65900        0.64600        0.04500
C          5.82800        1.39800        0.04200
C          7.04400        0.67800        0.03800
C          8.33500        1.45600        0.03400
C          7.04200       -0.73900        0.03800
C          8.30300       -1.56400        0.03400
C          5.82000       -1.44900        0.04200
C          4.61700       -0.73700        0.04600
N          3.31700       -1.16900        0.04900
H          0.85600        1.16200        0.05300
H          0.72600       -0.36800        0.94200
H          0.72200       -0.37100       -0.83100
H          5.79300        2.48000        0.04200
H          8.15700        2.53700        0.03600
H          8.91600        1.22100       -0.86300
H          8.92300        1.22000        0.92700
H          9.21300       -0.96000        0.03200
H          8.32700       -2.19800       -0.85900
H          8.33200       -2.20000        0.92500
H          5.79600       -2.53400        0.04200
