26
19212-42-1.pdb
C          0.90000        0.30700        0.34600
C          2.39300        0.12900        0.25600
O          2.93500       -0.74400        0.93500
C          3.16600        0.98000       -0.63300
C          2.96400        2.31900       -0.91300
C          2.00400        3.37000       -0.52000
O          3.94700        2.75400       -1.74200
N          4.79800        1.72200       -2.04100
C          4.33400        0.63700       -1.39900
C          5.00000       -0.65900       -1.58300
C          6.38500       -0.72000       -1.80200
C          7.02400       -1.94800       -1.99900
C          6.28900       -3.13000       -1.97700
C          4.91200       -3.08500       -1.77500
C          4.27200       -1.85700       -1.59200
H          0.45500       -0.60700        0.75300
H          0.47300        0.47500       -0.64600
H          0.65800        1.13000        1.02000
H          1.20200        2.99700        0.11600
H          1.54300        3.80900       -1.41100
H          2.51700        4.16800        0.02600
H          6.97800        0.19100       -1.82600
H          8.09800       -1.97900       -2.16900
H          6.78600       -4.08600       -2.12000
H          4.33300       -4.00500       -1.75800
H          3.19300       -1.86100       -1.45800
