21
19227-13-5.pdb
C          2.50700       -0.07700       -0.02300
C          1.00800       -0.02400       -0.00300
C          0.32900        1.19900       -0.01200
C         -1.06900        1.23900        0.00500
C         -1.81200        0.05600        0.06100
C         -1.13200       -1.16900        0.05700
C          0.26500       -1.21100        0.02200
C         -3.31500        0.04800        0.05400
N         -3.94700       -0.98700       -0.59400
N         -4.11500        0.93100        0.59700
O         -3.46400        1.92700        1.32100
H          2.94500        0.92600       -0.00900
H          2.85500       -0.58400       -0.92900
H          2.87700       -0.61500        0.85600
H          0.88300        2.13600       -0.03500
H         -1.56400        2.20500       -0.03300
H         -1.68400       -2.10600        0.09600
H          0.77100       -2.17300        0.02200
H         -3.49400       -1.31000       -1.44300
H         -4.93300       -0.79100       -0.72600
H         -4.21100        2.45400        1.66000
