17
1927-25-9.pdb
N          0.86500       -0.06000        0.12800
C          2.36400       -0.03600        0.05700
C          2.87000        1.33300        0.51500
C          4.38200        1.50500        0.41500
O          4.72400        2.83000        0.80700
C          2.90100       -1.20000        0.91700
O          1.88600       -1.96000        1.40600
O          4.07700       -1.44900        1.12000
H          0.50700        0.46300       -0.67700
H          0.56900        0.50300        0.93400
H          2.65100       -0.24400       -0.98000
H          2.56400        1.53000        1.55100
H          2.39300        2.11800       -0.08700
H          4.74300        1.33800       -0.60500
H          4.91300        0.83000        1.08800
H          4.41600        3.43900        0.11700
H          1.05800       -1.57200        1.02800
