29
19311-91-2.pdb
C          2.77200        1.39300       -0.34200
C          2.52400       -0.01600        0.18000
N          2.96600       -0.18400        1.56100
C          1.95000       -0.22100        2.61300
C          0.88100        0.86000        2.56600
C          4.32600       -0.52800        1.74600
O          5.13000       -0.51700        0.80700
C          4.89200       -0.83300        3.09200
C          6.09400       -0.18300        3.42300
C          6.69300       -0.38000        4.66900
C          6.09300       -1.22300        5.60100
C          4.92300       -1.90600        5.27100
C          4.34500       -1.73700        4.00900
O          3.25000       -2.49200        3.68900
H          2.38200        1.49600       -1.36000
H          3.84100        1.62700       -0.36700
H          2.28300        2.14300        0.28700
H          3.06000       -0.73000       -0.46300
H          1.46600       -0.27600        0.09800
H          2.41700       -0.14400        3.59400
H          1.45800       -1.20000        2.53500
H          1.32600        1.85200        2.67800
H          0.17900        0.70800        3.39400
H          0.30200        0.83800        1.64000
H          6.57100        0.47500        2.69800
H          7.62700        0.12200        4.90700
H          6.54900       -1.36400        6.57800
H          4.48600       -2.58000        6.00100
H          2.89800       -2.90100        4.49700
