38
1932-04-3.pdb
C         -1.66300       -0.03900       -0.20900
C         -0.89500        1.22300        0.15900
C          0.56400        1.13300       -0.29100
N          1.24200       -0.06100        0.25500
C          0.53200       -1.28300       -0.15800
C         -0.92700       -1.27100        0.30100
C          2.65700       -0.05200       -0.19200
C          3.53400       -1.23500        0.29800
N          4.95900       -1.18100       -0.11400
C          5.66300       -2.37000        0.40700
C          7.15300       -2.34700        0.07100
C          7.38100       -2.20600       -1.42800
C          6.61000       -1.00700       -1.96100
C          5.13100       -1.07800       -1.57300
H         -1.77100       -0.10100       -1.29800
H         -2.67400       -0.00200        0.21300
H         -0.93500        1.37700        1.24400
H         -1.37200        2.09300       -0.30800
H          1.08000        2.03900        0.04800
H          0.60200        1.12900       -1.38800
H          0.99600       -2.16600        0.29300
H          0.57600       -1.40800       -1.24900
H         -0.96600       -1.29200        1.39800
H         -1.43300       -2.17600       -0.05300
H          3.12400        0.87200        0.17700
H          2.67100       -0.01100       -1.28700
H          3.10400       -2.18200       -0.04600
H          3.49600       -1.23900        1.39400
H          5.21500       -3.29100        0.00800
H          5.56100       -2.40900        1.49900
H          7.62900       -3.26500        0.43200
H          7.63300       -1.50900        0.59600
H          7.04500       -3.11500       -1.94000
H          8.45000       -2.09100       -1.63800
H          6.70500       -0.96000       -3.05200
H          7.04900       -0.08200       -1.56400
H          4.65500       -1.92600       -2.08300
H          4.66800       -0.16300       -1.95000
