21
19406-86-1.pdb
C          1.81700        1.53400        0.04900
C          0.55900        0.70900        0.01200
C         -0.68200        1.36300       -0.02200
C         -1.87000        0.63400       -0.02700
C         -1.84300       -0.76400        0.01100
C         -0.60400       -1.41700        0.04500
C          0.60100       -0.69700        0.00200
N          1.80600       -1.39400        0.18600
C         -3.14900       -1.48400        0.03500
N         -3.15000       -2.85000        0.06600
O         -4.21400       -0.87700        0.02300
H          1.59700        2.60700        0.04300
H          2.43400        1.32100       -0.83000
H          2.38800        1.31800        0.95800
H         -0.73300        2.45000       -0.02800
H         -2.82100        1.16300       -0.04400
H         -0.54800       -2.49700        0.11000
H          1.78900       -2.35300       -0.14400
H          2.62900       -0.89700       -0.13700
H         -2.33300       -3.43700        0.09300
H         -4.05600       -3.29900        0.09500
