39
1941-52-2.pdb
C          2.74700        1.03100       -0.23100
C          2.34400       -0.31900        0.33500
S          2.93700       -1.73300       -0.66400
C          4.77100       -1.55500       -0.53000
S          5.32800       -1.56800        1.22600
C          4.86300       -3.26100        1.72200
C          5.19200       -3.48000        3.18900
C          5.49100       -2.60900       -1.42700
O          5.12300       -2.50000       -2.82700
C          7.04900       -2.60700       -1.40100
O          7.46800       -3.71200       -2.21400
C          7.68200       -1.28400       -1.91600
O          7.27400       -0.19300       -1.08400
C          9.22800       -1.29200       -2.00600
O          9.73100       -2.25700       -2.93900
C          9.76700        0.09300       -2.42200
O         11.19100        0.10400       -2.52500
H          2.29500        1.83000        0.36700
H          2.40100        1.15200       -1.26200
H          3.82900        1.18500       -0.20100
H          1.25100       -0.38200        0.35000
H          2.67100       -0.42100        1.37300
H          4.97000       -0.56600       -0.94400
H          5.41900       -3.98100        1.11700
H          3.79200       -3.42000        1.57200
H          6.23400       -3.23100        3.41700
H          5.04000       -4.53400        3.44600
H          4.53900       -2.88500        3.83600
H          5.16100       -3.61500       -1.13800
H          4.89000       -1.57200       -3.01000
H          7.40300       -2.80800       -0.38500
H          6.88600       -3.70800       -3.00000
H          7.30000       -1.09100       -2.92100
H          7.51800       -0.40000       -0.16000
H          9.65400       -1.54900       -1.03000
H          9.41800       -2.02200       -3.82200
H          9.48500        0.86400       -1.69700
H          9.37500        0.37700       -3.40400
H         11.53200       -0.66200       -2.02800
