28
1942-46-7.pdb
C          1.02200       -0.07400        0.07000
C          2.54200       -0.04900        0.07400
C          3.07100        1.34700        0.39200
C          4.59800        1.38100        0.40100
C          5.08500        2.73100        0.70900
C          5.52000        3.92900        0.98300
C          6.02700        5.32600        1.30200
C          5.16600        6.36700        0.59800
C          5.65200        7.78200        0.90200
C          4.79200        8.81800        0.19800
H          0.65900       -1.08000       -0.16000
H          0.62100        0.61200       -0.68300
H          0.62400        0.21600        1.04700
H          2.91200       -0.37400       -0.90700
H          2.91400       -0.76800        0.81400
H          2.68800        1.67100        1.36900
H          2.68900        2.06300       -0.34700
H          4.98300        1.06600       -0.57600
H          4.98300        0.67300        1.14300
H          7.07000        5.40700        0.97800
H          5.99900        5.47300        2.38700
H          4.12000        6.26000        0.91400
H          5.18400        6.19400       -0.48600
H          6.69300        7.89600        0.57700
H          5.62500        7.96300        1.98200
H          4.82200        8.68000       -0.88700
H          5.15000        9.82600        0.42300
H          3.74900        8.74700        0.52400
