22
19437-26-4.pdb
O          1.08300        0.01200       -0.00700
C          2.31300        0.06500        0.01500
C          3.10300       -1.10500        0.47000
C          2.60200       -2.38400        0.25100
C          3.34100       -3.46900        0.71400
C          4.53800       -3.24000        1.38500
C          4.94700       -1.93000        1.57700
N          4.25300       -0.85600        1.14700
C          3.01300        1.30000       -0.41400
C          2.39700        2.53100       -0.21200
C          3.04800        3.67500       -0.66200
C          4.27700        3.55300       -1.30300
C          4.80600        2.28300       -1.47600
N          4.19900        1.15300       -1.05800
H          1.66200       -2.53100       -0.27000
H          2.98600       -4.48300        0.55200
H          5.13800       -4.06500        1.75500
H          5.87200       -1.70200        2.09900
H          1.43400        2.59400        0.28400
H          2.59900        4.65400       -0.51600
H          4.80800        4.42600       -1.66500
H          5.76200        2.13800       -1.97300
