13
19444-84-9.pdb
O          1.06600        0.02100        0.04000
C          2.47700        0.05100        0.09700
C          2.99800       -1.19900        0.76000
C          4.25000       -0.74900        1.46900
O          4.15600        0.66300        1.64400
C          3.09800        1.16000        0.93300
O          2.76500        2.33100        0.95100
H          0.80400       -0.57100       -0.68300
H          2.87500        0.15600       -0.92000
H          3.20200       -1.99700        0.03800
H          2.27200       -1.60200        1.47400
H          5.15400       -0.97600        0.89600
H          4.33700       -1.22100        2.45300
