38
1947-00-8.pdb
O          6.25100       -0.90400        4.45900
C          5.97800       -0.74800        3.14200
O          5.18700       -1.46700        2.55100
C          6.75500        0.39100        2.52800
C          6.43600        0.55200        1.04300
C          7.23200        1.69800        0.42500
C          6.93300        1.83200       -1.07000
C          7.69800        2.98600       -1.70800
N          9.12900        2.82300       -1.58100
C          9.92900        3.78800       -1.04700
O          9.53100        4.82400       -0.53500
O         11.22800        3.45200       -1.23200
C         12.14900        4.53600       -1.08700
C         13.03900        4.38900        0.12000
C         14.26600        3.71800        0.02300
C         15.13700        3.67000        1.11300
C         14.78400        4.28000        2.31600
C         13.55300        4.92300        2.43400
C         12.68000        4.97200        1.34400
H          6.90000       -0.26200        4.80200
H          7.82400        0.18600        2.65600
H          6.50000        1.31200        3.06300
H          5.36200        0.73500        0.91200
H          6.66500       -0.38200        0.51400
H          8.30200        1.51200        0.57600
H          6.99200        2.63800        0.93600
H          5.85900        1.99900       -1.21700
H          7.18600        0.89600       -1.58200
H          7.37800        3.93900       -1.27300
H          7.47700        3.02600       -2.78100
H          9.60000        2.06500       -2.05200
H         11.66200        5.52100       -1.07900
H         12.77000        4.53700       -1.99100
H         14.56300        3.25100       -0.91400
H         16.09600        3.16900        1.02000
H         15.46900        4.25600        3.15900
H         13.27700        5.40000        3.37200
H         11.72800        5.49000        1.44600
