30
19549-72-5.pdb
C          0.73300        0.15400       -0.00900
C          2.24800        0.02600        0.06500
C          2.89000        0.19200       -1.31800
C          4.43500        0.14000       -1.30800
C          4.94600       -1.21900       -0.80100
C          5.05200        0.41400       -2.71100
O          4.58500       -0.58000       -3.63100
C          4.79900        1.81800       -3.31400
C          5.31900        2.94300       -2.41600
C          5.45100        1.93100       -4.70100
H          0.29100        0.00600        0.98100
H          0.31100       -0.59800       -0.68400
H          0.43900        1.14500       -0.36900
H          2.48200       -0.95600        0.48600
H          2.64300        0.78200        0.75400
H          2.56400        1.15500       -1.72700
H          2.49400       -0.58700       -1.98400
H          4.79900        0.90400       -0.60900
H          4.70100       -2.02800       -1.49600
H          4.53200       -1.48100        0.17600
H          6.03700       -1.19400       -0.68400
H          6.13800        0.27500       -2.63700
H          3.66300       -0.37400       -3.85100
H          3.72500        1.96400       -3.47000
H          6.34200        2.74400       -2.08100
H          4.68500        3.06300       -1.53100
H          5.32100        3.90200       -2.94500
H          6.53500        1.78500       -4.64300
H          5.26600        2.91900       -5.13700
H          5.04300        1.19100       -5.39600
