38
1956-10-1.pdb
C          0.95600        0.12400        0.02500
C          2.47500        0.12100        0.06100
C          3.00000        0.57200        1.42400
C          4.52700        0.56700        1.45000
C          5.07400        1.01300        2.80400
C          6.60300        0.99400        2.79000
C          7.17600        1.42200        4.12700
C          8.68500        1.40600        4.11000
O          9.38500        2.09000        3.38000
O          9.14000        0.56200        5.11400
C         10.11000        1.12200        5.95700
C         10.03300        2.45700        6.36600
C         10.93700        2.94700        7.30500
C         11.90300        2.09200        7.84200
C         11.96600        0.74300        7.45100
C         11.06100        0.25800        6.50300
N         12.84800        2.61100        8.83400
O         12.75800        3.80600        9.15100
O         13.68500        1.82200        9.30400
H          0.59900       -0.20100       -0.95700
H          0.56200        1.12800        0.21500
H          0.54500       -0.55500        0.77800
H          2.85600        0.78500       -0.72400
H          2.83900       -0.88800       -0.16300
H          2.61500       -0.09400        2.20600
H          2.63100        1.58100        1.64600
H          4.90900        1.23200        0.66600
H          4.89300       -0.44200        1.22400
H          4.70000        0.35000        3.59400
H          4.71700        2.02400        3.03600
H          6.97300        1.65700        1.99900
H          6.95900       -0.01500        2.54800
H          6.81200        0.76500        4.92600
H          6.86500        2.44000        4.39100
H          9.27100        3.12500        5.97200
H         10.86300        3.99000        7.60900
H         12.70100        0.06600        7.88000
H         11.09100       -0.78700        6.20500
