23
19600-63-6.pdb
C          4.91300       -2.60900        0.01600
C          4.31200       -1.55900        0.58500
C          5.05900       -0.40200        1.18500
C          4.73100        0.92100        0.48600
C          5.49600        2.11200        1.07400
C          7.01300        1.99000        0.90800
C          7.74100        3.16000        1.49300
C          9.24500        3.19000        1.48300
O          8.50400        2.85900        2.66700
H          4.32900       -3.43100       -0.39000
H          5.99400       -2.68100       -0.05600
H          3.22500       -1.53200        0.64500
H          6.13400       -0.60500        1.13100
H          4.80400       -0.32900        2.24900
H          3.65500        1.12100        0.57600
H          4.94500        0.84300       -0.58800
H          5.24400        2.22800        2.13400
H          5.15400        3.02600        0.57200
H          7.25700        1.91400       -0.15900
H          7.37700        1.07400        1.38500
H          7.20600        4.09900        1.45000
H          9.74100        4.15200        1.46000
H          9.77900        2.39300        0.98100
