21
1964-45-0.pdb
C          0.85900       -0.09500       -0.03500
C          2.35900       -0.03900       -0.03200
C          3.01700        1.18700       -0.03000
C          4.41100        1.25300       -0.02400
C          5.15200        0.05900       -0.02000
S          6.86800       -0.07800       -0.01100
C          6.80200       -1.77700       -0.01100
C          5.51100       -2.26700       -0.01800
C          5.18200       -3.72400       -0.02100
C          4.53600       -1.19500       -0.02200
C          3.11300       -1.22600       -0.02800
H          0.42300        0.91000       -0.03700
H          0.49700       -0.61300        0.85900
H          0.50000       -0.61600       -0.92800
H          2.45000        2.11700       -0.03300
H          4.91300        2.21600       -0.02100
H          7.72300       -2.34400       -0.00600
H          6.09200       -4.33500       -0.01600
H          4.60700       -3.98600       -0.91400
H          4.59700       -3.98700        0.86600
H          2.60200       -2.18800       -0.03000
