40
19715-19-6.pdb
C          3.10600       -0.17700        1.34300
C          2.46200       -0.00800       -0.05000
C          0.92900        0.06800        0.10200
C          2.93200        1.36100       -0.60100
C          2.84200       -1.20500       -0.94300
C          2.49300       -2.51200       -0.57400
C          2.83400       -3.60700       -1.37900
C          2.44300       -4.98500       -0.98400
O          2.37900       -5.21200        0.34300
O          2.25100       -5.85900       -1.81700
C          3.50900       -3.40500       -2.60100
O          3.76300       -4.46600       -3.43100
C          3.90900       -2.11700       -3.00800
C          3.53700       -1.04600       -2.15800
C          4.63700       -1.80400       -4.34200
C          3.56700       -1.52300       -5.41500
C          5.55000       -0.55200       -4.22800
C          5.56600       -2.92600       -4.86000
H          2.86200        0.67000        1.99600
H          4.19700       -0.23700        1.26900
H          2.76000       -1.08400        1.85300
H          0.63600        0.92600        0.72000
H          0.51400       -0.82600        0.58000
H          0.44000        0.17900       -0.87300
H          2.64400        2.17800        0.07100
H          2.48400        1.57700       -1.57700
H          4.02200        1.40000       -0.70600
H          1.90900       -2.66700        0.33100
H          2.76500       -4.51400        0.90400
H          3.26400       -5.25600       -3.12600
H          3.78000       -0.03700       -2.47700
H          2.93900       -0.66600       -5.14300
H          2.90300       -2.38400       -5.55500
H          4.02700       -1.29800       -6.38400
H          4.98200        0.37400       -4.08900
H          6.13700       -0.40200       -5.14300
H          6.25400       -0.65100       -3.39500
H          5.01800       -3.80400       -5.21400
H          6.27800       -3.24200       -4.09000
H          6.14700       -2.58600       -5.72700
