20
1975-51-5.pdb
C          2.49900        0.02100        0.00400
C          0.99300       -0.03400        0.01200
C          0.28000        1.18100        0.02100
C         -1.12200        1.18200        0.01600
C         -1.82900       -0.02400       -0.00800
C         -1.12900       -1.23500       -0.03000
C          0.27900       -1.25400       -0.00500
C          0.99400       -2.56500       -0.05500
O          0.36700       -3.55600        0.61400
O          2.05300       -2.73500       -0.63200
N         -1.85300        2.45800        0.02200
O         -1.18900        3.50200        0.02500
O         -3.09200        2.40900        0.02700
H          2.86200        1.05200        0.08200
H          2.89400       -0.38500       -0.93200
H          2.90800       -0.53000        0.85700
H          0.82800        2.12400        0.02500
H         -2.91800       -0.03900       -0.02900
H         -1.70200       -2.15800       -0.10500
H         -0.38500       -3.28900        1.17200
