14
19771-63-2.pdb
O          4.95100       -1.06400       -2.11000
C          4.18100       -0.40700       -1.21200
O          4.29300        0.78800       -0.99300
C          3.24700       -1.33300       -0.43700
C          3.84000       -1.58700        0.93900
S          3.43900       -3.31600        1.30800
C          3.09300       -3.72500       -0.34900
O          2.84600       -4.84300       -0.75900
N          3.13200       -2.60700       -1.13100
H          4.78100       -2.03200       -2.07700
H          2.24500       -0.88800       -0.39200
H          3.41800       -0.91900        1.69500
H          4.93000       -1.47300        0.95200
H          2.65500       -2.69000       -2.02400
