18
19788-49-9.pdb
C          2.78400       -1.18200       -1.76200
C          2.71700       -0.22200       -0.58800
O          3.19200        1.05800       -1.03800
C          4.53800        1.23900       -0.94700
O          5.30100        0.56200       -0.26800
C          4.95700        2.39700       -1.84300
C          4.94000        3.71400       -1.08700
S          6.62400        2.08900       -2.53000
H          2.41500       -2.17300       -1.48900
H          3.81500       -1.27700       -2.12700
H          2.19200       -0.79800       -2.60100
H          3.28100       -0.59600        0.27300
H          1.67800       -0.09400       -0.26900
H          4.27200        2.44300       -2.69700
H          5.60600        3.69400       -0.21600
H          3.93200        3.93200       -0.71600
H          5.23800        4.54600       -1.73500
H          7.17900        1.69900       -1.36900
