17
19788-35-3.pdb
C          1.22800        2.35700       -0.83500
O          2.64800        2.23200       -0.85400
C          3.11400        0.94700       -0.82800
O          2.39300       -0.04500       -0.78700
C          4.57400        0.86600       -0.85400
C          5.36700       -0.31400       -0.87100
C          6.66200        0.13700       -0.89600
C          7.98500       -0.51100       -0.92600
O          6.66100        1.49500       -0.88700
N          5.36000        1.95700       -0.86300
H          0.98000        3.40000       -1.05700
H          0.84500        2.11200        0.15900
H          0.76200        1.72600       -1.59800
H          5.02300       -1.33800       -0.87000
H          7.89000       -1.59700       -1.02400
H          8.53500       -0.29800       -0.00500
H          8.57200       -0.14200       -1.77200
