20
19781-81-8.pdb
C          2.31700       -0.63500       -0.01400
C          1.45900        0.61800       -0.03600
C          0.02800        0.29400       -0.10200
C         -1.14700        0.04300       -0.11000
C         -2.58700       -0.25600       -0.03000
C         -2.97200       -0.89200        1.31600
C         -2.28800       -2.23000        1.57200
O         -2.68500       -0.00500        2.40000
H          3.37800       -0.36600        0.01200
H          2.14400       -1.25200       -0.90200
H          2.10100       -1.24800        0.86800
H          1.73800        1.23700       -0.89600
H          1.65800        1.20700        0.86600
H         -2.87900       -0.92100       -0.85100
H         -3.14300        0.68200       -0.15300
H         -4.05600       -1.05000        1.32600
H         -1.19800       -2.12700        1.60900
H         -2.54500       -2.95900        0.79800
H         -2.59100       -2.63000        2.54600
H         -1.72400        0.15500        2.39600
