33
19780-78-0.pdb
C          3.71500        5.41700       -5.24400
C          3.54600        4.55900       -4.00300
C          4.39100        3.28200       -4.05200
C          4.21100        2.48600       -2.75400
C          4.94100        1.12300       -2.70200
C          4.48600        0.34000       -1.44600
C          4.87500        0.97100       -0.11400
C          6.47300        1.28300       -2.78900
C          7.28400       -0.02300       -2.75500
C          6.97300       -0.96000       -3.91700
O          8.67300        0.31200       -2.80400
H          3.11100        6.32600       -5.15700
H          3.39100        4.88000       -6.14200
H          4.75900        5.71800       -5.37700
H          2.48700        4.29700       -3.89100
H          3.82600        5.15100       -3.12300
H          5.44400        3.55600       -4.18700
H          4.09600        2.67100       -4.91300
H          3.13700        2.30700       -2.61200
H          4.54000        3.11400       -1.91800
H          4.60900        0.54600       -3.57500
H          3.39400        0.23400       -1.47000
H          4.88100       -0.68100       -1.48000
H          4.43600        1.96600        0.00800
H          5.96100        1.05800       -0.00700
H          4.51200        0.35300        0.71300
H          6.82900        1.93700       -1.98300
H          6.73600        1.81400       -3.71200
H          7.13100       -0.55100       -1.80900
H          6.96900       -0.41700       -4.86800
H          5.99800       -1.44200       -3.79200
H          7.73700       -1.74000       -4.00200
H          8.84600        0.74400       -3.65700
