16
1979-98-2.pdb
C          2.37800       -1.45000        0.77900
S          2.83600        0.11800        0.00800
C          3.27000       -0.43300       -1.58000
N          3.19800       -1.67000       -1.94000
C          3.59200       -1.94700       -3.21500
C          4.03200       -1.04600       -4.09600
C          4.09300        0.35400       -3.66100
O          4.48400        1.24400       -4.40700
N          3.69300        0.58000       -2.38000
O          3.52900       -3.26700       -3.57200
H          2.13400       -1.27900        1.83000
H          3.20500       -2.16400        0.73100
H          1.49900       -1.87500        0.28500
H          4.34600       -1.29600       -5.09800
H          3.72100        1.52400       -2.02700
H          3.20700       -3.69200       -2.75700
