24
19812-93-2.pdb
O          2.27400        0.00500        0.02300
C          0.91200       -0.01500        0.00900
C          0.20100       -1.20700       -0.01200
C         -1.19900       -1.17500       -0.03700
C         -1.91200        0.04000       -0.02900
C         -1.15100        1.22600        0.00500
C          0.24700        1.20000        0.01600
C         -3.39600        0.07800       -0.04400
C         -4.16800       -0.92600        0.57000
C         -5.56800       -0.86900        0.58600
C         -6.23400        0.20500       -0.00500
C         -5.49400        1.20600       -0.63400
C         -4.09600        1.13400       -0.65900
C         -7.66300        0.28800        0.04600
N         -8.82100        0.35900        0.09400
H          2.59900       -0.91000       -0.00400
H          0.71000       -2.16600       -0.01200
H         -1.72700       -2.12600       -0.07400
H         -1.63700        2.19800        0.03800
H          0.81000        2.12900        0.03600
H         -3.68900       -1.76500        1.07000
H         -6.12800       -1.66300        1.07700
H         -5.99300        2.05100       -1.10500
H         -3.55700        1.92700       -1.17600
