15
19838-08-5.pdb
C          0.93100       -0.00800       -0.07200
C          2.42400       -0.09600        0.02500
N          3.10300        1.08000        0.10800
C          4.44100        0.97300        0.23900
C          5.08200       -0.25000        0.28300
N          4.41800       -1.42500        0.18300
C          3.08000       -1.33700        0.04600
N          2.40600       -2.55500       -0.04200
H          0.60100        1.03600       -0.05000
H          0.46400       -0.52600        0.77100
H          0.58200       -0.45200       -1.01000
H          4.99000        1.90500        0.31300
H          6.15700       -0.32200        0.40100
H          3.11900       -3.28100       -0.04400
H          1.82800       -2.60000       -0.87300
