26
1991-87-3.pdb
C         -4.46000        7.94000       -0.78200
C         -4.15800        6.47200       -0.85200
C         -4.31000        5.65800        0.27300
C         -4.03500        4.29000        0.20100
C         -3.63100        3.70400       -1.00400
C         -3.37200        2.21300       -1.10000
C         -4.61200        1.30300       -0.97200
N         -5.62800        1.58500       -2.01100
C         -5.18600        1.33300        0.45300
O         -6.47800        1.73400        0.52200
O         -4.54900        1.03700        1.45500
C         -3.44700        4.52900       -2.12200
C         -3.70400        5.90100       -2.04400
H         -4.86900        8.21800        0.19500
H         -5.20400        8.20700       -1.54000
H         -3.54900        8.52200       -0.94700
H         -4.63700        6.07900        1.22000
H         -4.13100        3.70100        1.10900
H         -2.62900        1.94800       -0.33600
H         -2.89000        1.99600       -2.06300
H         -4.29300        0.26500       -1.12900
H         -5.89500        2.56600       -2.05200
H         -6.41400        0.94000       -1.99100
H         -6.79800        1.99200       -0.36100
H         -3.09500        4.11300       -3.06400
H         -3.54400        6.52400       -2.92200
