41
1991-52-2.pdb
C          0.87900        0.03900        0.03400
O          2.29500       -0.04900        0.01000
C          3.02700        1.11500        0.00800
C          2.43100        2.39500       -0.00200
C          3.16700        3.60500       -0.00200
C          4.55800        3.45100       -0.00900
O          5.46700        4.46900       -0.02000
C          5.16100        2.18600        0.00500
C          4.43000        0.98500        0.02400
C          5.16400       -0.37600        0.08900
C          6.71000       -0.23300        0.09800
C          4.79400       -1.12700        1.38700
C          4.83000       -1.26500       -1.13000
C          2.44100        4.97000        0.02600
C          0.89300        4.84800        0.08800
C          2.84300        5.78200        1.27900
C          2.73900        5.78300       -1.25400
H          0.47800       -0.98000        0.03500
H          0.49500        0.54100       -0.86200
H          0.52700        0.53200        0.94700
H          1.35000        2.44800       -0.00300
H          5.02300        5.32100       -0.10600
H          6.24700        2.18300        0.01100
H          7.05800        0.32700        0.97500
H          7.07200        0.27900       -0.80200
H          7.20500       -1.21000        0.12800
H          5.05400       -0.53600        2.27300
H          5.33200       -2.08100        1.45500
H          3.72800       -1.36400        1.45400
H          5.09000       -0.76300       -2.06900
H          3.77300       -1.54000       -1.18300
H          5.39300       -2.20500       -1.09100
H          0.56500        4.31600        0.98900
H          0.49300        4.32300       -0.78800
H          0.41600        5.83500        0.10900
H          2.60600        5.23100        2.19700
H          2.30400        6.73600        1.31700
H          3.90600        6.02800        1.32100
H          2.42700        5.23400       -2.15000
H          3.79400        6.03200       -1.38400
H          2.19700        6.73700       -1.24500
