12
   
N          1.12400        0.08200       -0.54400
C          2.27200        0.03400       -0.38100
C          3.68900       -0.05300       -0.18000
N          4.34100        1.13700       -0.03600
C          5.67900        1.05800        0.15400
C          6.34900       -0.15200        0.19900
N          5.70900       -1.33700        0.05600
C          4.36000       -1.26600       -0.13500
C          3.68700       -2.52300       -0.28600
N          3.12100       -3.52900       -0.41000
H          6.20200        2.00200        0.26900
H          7.42200       -0.20300        0.35100
