16
   
N          1.07900       -0.10900        0.12500
C          2.47000       -0.15900        0.11500
N          3.08900        1.01900        0.33700
C          4.44000        1.02300        0.40100
C          5.22300       -0.11100        0.26400
C          4.58000       -1.32500        0.05000
C          3.18300       -1.35100       -0.01100
C          2.47700       -2.61400       -0.27600
O          2.86500       -3.61100        0.55000
O          1.64700       -2.74300       -1.15800
H          0.79400        0.86700        0.13300
H          0.67500       -0.63400       -0.65000
H          4.89000        1.99800        0.56900
H          6.30400       -0.04600        0.31100
H          5.16300       -2.23100       -0.09400
H          3.40100       -3.31600        1.31100
