15
   
N          1.13600       -0.79000       -1.24600
C          2.46400       -1.06000       -1.27100
O          2.89200       -2.19600       -1.39300
N          3.22200        0.06500       -1.16000
C          4.67200        0.00600       -1.23400
C          5.18000       -0.25000       -2.65300
O          4.71800        0.77500       -3.53200
H          0.56700       -1.62700       -1.21200
H          0.83900       -0.06100       -0.61300
H          2.77900        0.93500       -1.41500
H          5.02800       -0.78100       -0.56100
H          5.03600        0.97300       -0.87200
H          4.84600       -1.21700       -3.04300
H          6.27400       -0.23800       -2.66600
H          3.77400        0.58900       -3.68200
