19
   
C          0.94700       -0.11300        0.02100
C          2.46300       -0.02100        0.12100
C          2.99000        1.42100        0.27800
C          2.50300        2.06100        1.58400
C          4.53000        1.40600        0.20100
N          5.09600        2.75100        0.20900
H          0.64900       -1.14200       -0.20500
H          0.56500        0.53300       -0.77600
H          0.46300        0.17000        0.96100
H          2.88800       -0.46000       -0.79000
H          2.80600       -0.64000        0.95900
H          2.60600        2.01900       -0.55900
H          2.82500        1.47800        2.45300
H          1.41200        2.13500        1.60800
H          2.89000        3.07900        1.69800
H          4.85100        0.90100       -0.71800
H          4.94400        0.84200        1.04400
H          4.74200        3.27600       -0.59000
H          6.10600        2.69400        0.08900
