20
   
O          1.25800        0.18000       -0.24700
C          2.56500       -0.09400       -0.07000
O          3.15400       -1.00200       -0.62800
C          3.22700        0.78600        0.91700
C          2.97000        2.16200        0.96100
C          3.63400        2.96500        1.89700
C          4.58000        2.41500        2.78000
C          5.14700        3.34100        3.78600
O          6.48100        3.32600        3.93100
O          4.42600        4.14100        4.36100
C          4.82600        1.04200        2.71000
C          4.16700        0.22000        1.78400
N          5.78800        0.41600        3.58500
O          6.95200        0.83200        3.50100
O          5.38500       -0.49300        4.31700
H          0.86500        0.81200        0.38300
H          2.27600        2.62600        0.26300
H          3.40900        4.03300        1.93900
H          7.00200        2.61400        3.49700
H          4.37800       -0.84900        1.73300
