28
20012-63-9.pdb
N          2.38600        0.37300        0.04900
C          0.99800        0.13700        0.07600
C          0.17800        1.28400        0.01000
C         -1.21400        1.19600       -0.04900
C         -1.81700       -0.05000       -0.09200
C         -1.02500       -1.19700       -0.08900
C          0.38000       -1.12700       -0.02200
O          0.93600       -2.38200       -0.07400
C          2.34900       -2.51600       -0.05300
C          2.79100       -3.95800       -0.19100
C          4.05600       -4.22900       -0.73900
C          4.54100       -5.53500       -0.80900
C          3.76900       -6.58700       -0.32400
C          2.51600       -6.33300        0.23100
C          2.03000       -5.02500        0.30300
H          2.63400        1.32500        0.29700
H          2.92500       -0.27200        0.61000
H          0.62600        2.27400        0.01900
H         -1.81600        2.10100       -0.07200
H         -2.90000       -0.13400       -0.14800
H         -1.50700       -2.17100       -0.15700
H          2.73000       -2.17900        0.91700
H          2.78200       -1.94800       -0.88300
H          4.67700       -3.41700       -1.11200
H          5.52000       -5.72800       -1.23600
H          4.14700       -7.60500       -0.37200
H          1.91700       -7.15500        0.61700
H          1.05600       -4.84300        0.75200
