18
2002-04-2.pdb
N         -1.84700        0.96900       -1.02500
C         -0.65900        0.62000       -0.49800
S          0.64000        0.10100       -1.49000
C          1.56700       -0.12300       -0.05500
N          0.92400        0.23400        1.03900
N         -0.36800        0.64900        0.78100
C          2.95100       -0.62000       -0.09000
C          3.82500       -0.28700        0.95100
C          5.12500       -0.76100        0.91200
N          5.60800       -1.54100       -0.07800
C          4.75200       -1.86800       -1.06600
C          3.43500       -1.44000       -1.11700
H         -1.88700        1.23400       -2.00000
H         -2.47300        1.48900       -0.41800
H          3.50200        0.33500        1.78100
H          5.83400       -0.51900        1.69900
H          5.16300       -2.50800       -1.84200
H          2.81100       -1.76400       -1.94200
