34
2002-35-9.pdb
C          1.07200       -0.32200        0.24300
N          2.49900       -0.15400        0.06600
C          3.16800        0.46500        1.12700
N          2.72000        0.34400        2.40500
C          3.41500        0.94000        3.39900
N          4.53900        1.68200        3.31100
C          4.93800        1.78600        2.03200
N          6.01800        2.46800        1.54400
C          6.03200        2.30000        0.18500
N          5.03000        1.55400       -0.23100
C          4.33600        1.22600        0.91700
C          6.95500        3.23500        2.33700
C          8.15200        2.43800        2.83200
C          9.23500        3.49000        2.90500
O          9.14100        4.16700        4.15900
C          8.90200        4.42100        1.74300
C          9.59900        4.01200        0.44100
O          9.22500        4.89300       -0.61600
O          7.47000        4.32700        1.54000
H          0.65500       -0.80300       -0.64700
H          0.56900        0.64300        0.36800
H          0.84400       -0.96600        1.09800
H          2.78900        0.26600       -0.81600
H          3.01400        0.80200        4.39900
H          6.78300        2.74600       -0.45300
H          6.40500        3.68600        3.17200
H          8.43200        1.66100        2.11100
H          7.94300        1.95500        3.79300
H         10.24100        3.06600        2.84400
H          8.42500        4.82600        4.12500
H          9.12000        5.47000        1.97000
H          9.32200        3.00000        0.13400
H         10.68600        4.06100        0.55100
H          8.25100        4.94100       -0.61500
