19
2002-03-1.pdb
N         -1.84800        0.94000       -1.19600
C         -0.67800        0.60900       -0.62100
S          0.66500        0.10800       -1.56000
C          1.53000       -0.12700       -0.08700
N          0.84300        0.23400        0.98000
N         -0.44000        0.64300        0.66900
C          2.90300       -0.65000       -0.06700
C          3.76800       -0.29000        0.97800
C          5.07100       -0.79300        1.03800
C          5.52600       -1.67000        0.05700
C          4.68300       -2.04400       -0.98500
C          3.38100       -1.53900       -1.04700
H         -1.85000        1.20000       -2.17400
H         -2.50500        1.45400       -0.61900
H          3.42700        0.38800        1.75900
H          5.72600       -0.50300        1.85600
H          6.53700       -2.06900        0.10800
H          5.03100       -2.73700       -1.74700
H          2.74300       -1.87100       -1.86300
