27
20031-21-4.pdb
C          2.55700       -0.20100        1.28200
C          1.72200        0.15600        0.06000
C          2.59500        0.78400       -1.02600
O          1.11000       -1.02200       -0.46400
C         -0.21900       -0.66300       -0.81900
O         -1.18400       -1.48500       -0.13500
C         -1.66000       -0.70300        0.98900
C         -3.00500       -1.24000        1.46600
O         -2.87000       -2.59100        1.90700
C         -1.69700        0.72400        0.44500
O         -2.82300        0.94600       -0.41100
C         -0.41800        0.77700       -0.36900
O          0.70800        1.08300        0.45300
H          3.35100       -0.91200        1.03100
H          1.92900       -0.67300        2.04700
H          3.00400        0.68900        1.73600
H          3.39500        0.10300       -1.33600
H          3.03700        1.72700       -0.68500
H          2.00500        1.01000       -1.92200
H         -0.36300       -0.79600       -1.89500
H         -0.91100       -0.81000        1.78200
H         -3.75500       -1.24000        0.66900
H         -3.38000       -0.64700        2.30400
H         -2.50500       -3.08700        1.14900
H         -1.72800        1.46300        1.25200
H         -2.93700        0.16400       -0.98200
H         -0.45600        1.47800       -1.20800
