25
20125-84-2.pdb
C          1.02700       -0.00000        0.05500
C          2.54700       -0.01500        0.06700
C          3.09000       -1.27400        0.74100
C          4.62000       -1.28200        0.74600
C          5.15000       -2.51700        1.41600
C          5.94400       -2.49900        2.50000
C          6.45400       -3.74600        3.17600
C          5.99600       -3.84300        4.63200
O          4.57800       -3.93300        4.72900
H          0.66100        0.90900       -0.43200
H          0.62700       -0.02600        1.07300
H          0.63100       -0.86200       -0.49200
H          2.91100        0.87500        0.59300
H          2.91600        0.04400       -0.96400
H          2.71500       -2.16300        0.21600
H          2.71400       -1.33000        1.77100
H          4.99100       -0.38000        1.24700
H          4.99500       -1.25500       -0.28300
H          4.86100       -3.46800        0.97700
H          6.24400       -1.54900        2.93600
H          7.54900       -3.73600        3.14200
H          6.11600       -4.63600        2.63200
H          6.33200       -2.98100        5.21800
H          6.41300       -4.74400        5.09000
H          4.21100       -3.15200        4.27600
