42
2016-04-8.pdb
C          2.93900        1.40300        0.55800
N          2.40300        0.02400        0.30900
C          0.93200       -0.06600        0.48100
C          2.87900       -0.50000       -1.01000
O          2.36000        0.28200       -2.08300
C          2.69400       -0.24900       -3.36700
C          2.16100        0.62400       -4.48800
C          2.87300        0.72000       -5.69900
C          2.34300        1.42400       -6.78700
C          1.09900        2.03100       -6.67900
C          0.38800        1.95900       -5.49000
C          0.91500        1.25600       -4.40000
O          4.29100       -0.53200       -1.07900
C          4.90800       -1.44200       -0.17600
C          6.39100       -1.38100       -0.38200
C          7.06900       -0.15600       -0.28700
C          8.45200       -0.10200       -0.45000
C          9.16600       -1.27000       -0.70300
C          8.49900       -2.49200       -0.79200
C          7.11800       -2.55000       -0.62700
H          2.46400        1.79400        1.45900
H          2.72600        2.04400       -0.29900
H          4.01500        1.32300        0.73200
H          2.80200       -0.58000        1.02300
H          0.43100        0.56200       -0.25800
H          0.69600        0.25900        1.49700
H          0.64100       -1.12100        0.37200
H          2.48100       -1.52200       -1.10100
H          2.25600       -1.24400       -3.47500
H          3.78400       -0.32600       -3.46300
H          3.84100        0.23700       -5.81100
H          2.90200        1.48000       -7.72000
H          0.67900        2.56100       -7.53600
H         -0.58300        2.43700       -5.41000
H          0.33000        1.20100       -3.48200
H          4.51500       -2.45500       -0.32500
H          4.71700       -1.14600        0.86400
H          6.52900        0.76500       -0.09500
H          8.97500        0.84800       -0.38300
H         10.24400       -1.23000       -0.83300
H          9.06500       -3.40300       -0.98800
H          6.62500       -3.51700       -0.69600
