22
20201-24-5.pdb
C          1.82200        0.14900       -1.77900
C          3.23500        0.60100       -1.45200
O          4.12900       -0.48300       -1.73800
C          4.30700       -1.35000       -0.71600
O          4.04700       -1.19700        0.46000
C          4.76700       -2.67800       -1.28900
O          3.91100       -3.47200       -1.66500
C          6.26200       -2.89400       -1.40300
C          6.93500       -2.81100       -0.03600
C          6.54200       -4.25400       -2.04500
H          1.09500        0.94100       -1.58400
H          1.54900       -0.73400       -1.18900
H          1.75200       -0.14600       -2.83200
H          3.31600        0.94000       -0.41400
H          3.51600        1.44200       -2.09400
H          6.66300       -2.11300       -2.06000
H          6.49700       -3.53200        0.66400
H          6.82300       -1.81500        0.40200
H          8.00700       -3.02000       -0.11600
H          6.13300       -5.07100       -1.43900
H          7.61700       -4.42200       -2.16200
H          6.08100       -4.31900       -3.03700
