21
2024-83-1.pdb
C          1.06700        0.43600        0.50400
O          2.40300        0.15900        0.09600
C          3.00800        1.10100       -0.69500
C          2.63300        2.45200       -0.65200
C          3.27800        3.40900       -1.43800
C          4.32100        3.02600       -2.27600
C          4.70900        1.68700       -2.32400
C          4.06700        0.71500       -1.53800
O          4.60100       -0.53200       -1.73300
C          4.06200       -1.63500       -1.02300
C          4.99600        4.00800       -3.06900
N          5.53700        4.81700       -3.70200
H          0.67600       -0.45200        1.00900
H          0.42800        0.64200       -0.36200
H          1.03100        1.25900        1.22600
H          1.84500        2.80600        0.00800
H          2.96400        4.44800       -1.37800
H          5.52700        1.38000       -2.97600
H          4.61800       -2.52700       -1.32800
H          3.01300       -1.80400       -1.28600
H          4.20500       -1.52000        0.05600
