17
20265-35-4.pdb
C          2.89300        1.22300       -0.07300
O          2.44400       -0.12600       -0.16600
C          3.05100       -0.97000        0.73700
N          3.92900       -0.44300        1.62700
C          4.48700       -1.28600        2.52800
C          4.20400       -2.64100        2.59800
C          3.29900       -3.17300        1.68600
C          2.72700       -2.31600        0.74200
N          1.79800       -2.84800       -0.21900
O          2.09300       -2.75100       -1.41800
O          0.80500       -3.43700        0.23100
H          2.40400        1.79700       -0.86600
H          3.97500        1.29700       -0.23000
H          2.60400        1.66600        0.88700
H          5.19000       -0.82300        3.21700
H          4.68000       -3.26700        3.34700
H          3.04900       -4.23000        1.71100
