22
20300-10-1.pdb
N          3.08900       -0.67700        1.02100
C          2.42000       -0.08700       -0.02400
S          0.74600       -0.09400        0.02800
C          3.24700        0.55500       -1.09200
C          2.87300        1.84400       -1.51000
C          3.61800        2.52700       -2.46700
C          4.76300        1.94300       -2.99300
C          5.17400        0.66300       -2.59300
C          6.34900        0.11600       -3.13400
C          6.78000       -1.16000       -2.77700
C          6.01900       -1.91900       -1.90200
C          4.84200       -1.39300       -1.36300
C          4.40400       -0.07400       -1.65300
H          2.55400       -1.09900        1.76900
H          4.09900       -0.66500        1.10800
H          2.00000        2.33700       -1.08700
H          3.30900        3.51600       -2.79400
H          5.33700        2.49800       -3.73200
H          6.94600        0.68600       -3.84000
H          7.69800       -1.56100       -3.19600
H          6.33300       -2.92700       -1.63900
H          4.25600       -2.04400       -0.72000
