17
20348-09-8.pdb
O          1.30900        0.27500        0.83600
C          2.35600        0.11800        0.21900
C          3.09100       -1.21900        0.12900
O          3.82700       -1.48400       -1.06000
C          4.43200       -0.36900       -1.57100
C          5.40300       -0.55800       -2.54700
C          6.01900        0.55200       -3.11400
C          5.63600        1.81400       -2.67900
N          4.67300        2.03300       -1.75500
C          4.08800        0.94100       -1.23000
N          3.02200        1.15600       -0.36800
H          2.35300       -2.02000        0.24100
H          3.77600       -1.27800        0.98300
H          5.66700       -1.56100       -2.87000
H          6.77600        0.43800       -3.88300
H          6.09900        2.70800       -3.08600
H          2.67400        2.10000       -0.27600
