44
20350-15-6.pdb
C          2.60200        0.49400       -1.09000
C          2.53400        1.87800       -0.41900
C          1.19000        2.48000        0.06300
C          0.45000        3.49900       -0.82400
C         -0.35700        2.90800       -1.99200
C         -1.28300        1.84500       -1.46600
C         -0.86500        0.57100       -1.45500
C         -1.34900       -0.60700       -0.67000
C         -2.84700       -0.83800       -0.83000
C         -3.02200       -2.06600        0.03700
O         -4.37300       -2.33800        0.32200
C         -2.23200       -1.73800        1.30000
C         -1.15900       -0.68500        0.89100
C          0.20700       -1.10800        1.52200
O          0.92000       -1.96000        0.63400
C          1.11200        0.02100        1.94200
C          2.44700        0.02500        1.80000
C          3.24200        1.24600        1.90500
O          3.76400        1.60900        2.94700
O          3.45000        1.89900        0.73200
H          1.65100       -0.02300       -1.15100
H          3.28600       -0.19400       -0.58200
H          2.99500        0.57300       -2.10800
H          2.95300        2.58400       -1.14600
H          0.49200        1.69400        0.32900
H          1.37800        3.00700        1.00800
H          1.14700        4.26700       -1.17300
H         -0.26800        4.01800       -0.16900
H         -0.93100        3.70700       -2.48400
H          0.33900        2.51800       -2.74400
H         -2.17100        2.16700       -0.92900
H          0.01000        0.35800       -2.06400
H         -0.83500       -1.47000       -1.11500
H         -3.15000       -1.01300       -1.86600
H         -3.44400        0.00100       -0.44700
H         -2.58100       -2.94300       -0.45400
H         -4.80600       -2.54700       -0.52400
H         -1.79400       -2.66000        1.70000
H         -2.87600       -1.33000        2.08800
H         -1.46800        0.27300        1.33500
H          0.01900       -1.67500        2.44300
H          0.35700       -2.72500        0.43700
H          0.61800        0.90700        2.34500
H          2.99600       -0.84700        1.48700
