35
2035-72-5.pdb
C          1.43100        0.55400        3.41600
C          2.72100        0.05200        2.83500
C          3.25900       -1.12100        3.21300
C          3.33600        0.95500        1.81000
O          2.81800        2.01500        1.48400
O          4.52600        0.43300        1.31700
C          5.24100        1.07900        0.28000
C          4.61900        1.76000       -0.76600
C          5.39000        2.30600       -1.80000
C          6.78700        2.18200       -1.78700
C          7.39200        1.46700       -0.74100
O          8.74600        1.26600       -0.66900
C          6.62700        0.91800        0.29000
C          7.62800        2.74700       -2.88000
O          8.71900        2.22600       -3.10800
C          7.21300        3.93100       -3.67500
C          7.55100        3.99100       -5.03300
C          7.19200        5.10800       -5.79200
C          6.50700        6.16700       -5.19600
C          6.19300        6.11800       -3.83900
C          6.55000        5.00800       -3.07500
H          0.98800       -0.16100        4.11800
H          0.69500        0.73300        2.62500
H          1.59500        1.49100        3.95900
H          2.77400       -1.74100        3.96200
H          4.18700       -1.50300        2.80200
H          3.53900        1.86900       -0.80600
H          4.87500        2.81100       -2.61400
H          9.13700        1.55100       -1.52700
H          7.11400        0.36200        1.08600
H          8.09300        3.17200       -5.50200
H          7.45300        5.15600       -6.84700
H          6.23300        7.03800       -5.78600
H          5.66700        6.95100       -3.37300
H          6.32200        5.00600       -2.01300
