39
20386-33-8.pdb
C         -2.63300        1.66700       -0.01600
C         -1.28800        0.96900       -0.01400
C         -0.06800        1.68300        0.01200
C         -0.04100        3.19200        0.14600
C          1.16200        0.97300       -0.10800
C          2.45600        1.75800       -0.25000
C          1.18100       -0.45000       -0.04000
C         -0.03900       -1.15400        0.10500
C         -0.09800       -2.63700        0.40600
C         -1.27200       -0.45200        0.00500
C         -2.59200       -1.19700       -0.04300
C          2.51300       -1.16200       -0.03100
O          3.44300       -0.69400        0.62200
C          2.74800       -2.45300       -0.74600
C          3.69400       -3.33500       -0.19900
C          3.83900       -4.62400       -0.71500
C          3.04400       -5.04200       -1.78000
C          2.13600       -4.15500       -2.36000
C          2.00800       -2.85100       -1.86300
H         -2.58200        2.75000       -0.11700
H         -3.16800        1.44800        0.91500
H         -3.23300        1.33000       -0.86700
H         -0.95600        3.60900        0.57300
H          0.13500        3.65800       -0.82700
H          0.74300        3.49700        0.84900
H          2.29300        2.74500       -0.69700
H          3.15200        1.26100       -0.93200
H          2.92300        1.89800        0.72900
H          0.83400       -3.03200        0.81200
H         -0.37500       -3.19800       -0.49300
H         -0.83600       -2.83800        1.19000
H         -2.48200       -2.27800       -0.15900
H         -3.17200       -0.87700       -0.91600
H         -3.16500       -1.01400        0.87000
H          4.29600       -3.03100        0.65600
H          4.55800       -5.30700       -0.27000
H          3.12900       -6.06000       -2.15400
H          1.51100       -4.48900       -3.18500
H          1.28300       -2.18500       -2.32400
