29
2039-76-1.pdb
C          1.33000        0.79100        0.52200
C          2.55100        0.09800       -0.02300
O          2.90200       -0.99800        0.40800
C          3.33500        0.76000       -1.11000
C          2.97400        1.98800       -1.65600
C          3.73900        2.53800       -2.68600
C          4.87200        1.87400       -3.18800
C          5.60100        2.44200       -4.23600
C          6.71500        1.79300       -4.76400
C          7.14200        0.56500       -4.24900
C          8.26700       -0.06900       -4.80400
C          8.72700       -1.28500       -4.30400
C          8.07000       -1.87900       -3.23800
C          6.94600       -1.26200       -2.68400
C          6.43900       -0.03100       -3.17200
C          5.27400        0.62800       -2.64400
C          4.47400        0.10100       -1.60000
H          0.89800        0.17700        1.31900
H          0.57800        0.90500       -0.26400
H          1.60200        1.75800        0.95000
H          2.10300        2.53600       -1.30900
H          3.43800        3.49800       -3.10300
H          5.30600        3.39800       -4.66300
H          7.25100        2.26300       -5.58700
H          8.79700        0.38200       -5.64000
H          9.59600       -1.76400       -4.74600
H          8.42500       -2.82300       -2.83200
H          6.47200       -1.77000       -1.84800
H          4.72700       -0.85800       -1.15200
