42
204327-96-8.pdb
C          0.64900       -1.27100        0.06400
C         -0.82300       -1.11000       -0.36300
N         -1.48900        0.06600        0.23300
C         -0.68500        1.25600       -0.15500
C          0.83100        1.16900        0.22200
C          1.62300        2.36800       -0.35500
C          1.14700        3.71500        0.14600
C          1.15100        4.01600        1.51400
C          0.65100        5.23500        1.97400
C          0.16600        6.17600        1.07000
C          0.19300        5.90500       -0.29700
C          0.68100        4.68100       -0.75800
N          1.47100       -0.08800       -0.23300
C         -1.60900       -0.00100        1.70200
C         -2.39600       -1.17700        2.24700
C         -1.76900       -2.12900        3.07500
C         -2.50200       -3.17800        3.63100
C         -3.86700       -3.28900        3.37700
C         -4.49900       -2.35100        2.56100
C         -3.76700       -1.30600        1.99300
H          1.07700       -2.13000       -0.46200
H          0.70800       -1.50200        1.13400
H         -1.38400       -2.02500       -0.15200
H         -0.85900       -1.00400       -1.45800
H         -1.14000        2.15000        0.28800
H         -0.77700        1.38800       -1.24200
H          0.91800        1.19900        1.31500
H          1.57700        2.34000       -1.45200
H          2.68600        2.27600       -0.09400
H          1.53400        3.29900        2.23700
H          0.63600        5.44700        3.04000
H         -0.22900        7.12300        1.42900
H         -0.17300        6.64500       -1.00400
H          0.68300        4.48400       -1.82800
H          2.37800       -0.19100        0.22200
H         -2.12400        0.90200        2.05500
H         -0.63100        0.01300        2.19500
H         -0.71200       -2.04600        3.30300
H         -2.00900       -3.90400        4.27200
H         -4.44000       -4.09900        3.82100
H         -5.56700       -2.43000        2.37300
H         -4.26800       -0.57800        1.35800
