28
204587-86-0.pdb
C          1.01300       -0.13100        0.07600
C          2.53800       -0.03500        0.08500
N          3.00900        0.18700       -1.32600
C          4.48700        0.25000       -1.49900
C          4.83200        0.54400       -2.92100
C          5.01000        1.77900       -3.41200
C          3.03000        1.04900        1.01800
C          3.86400        0.71600        2.09800
C          4.40700        1.71600        2.90600
C          4.12400        3.05500        2.64600
C          3.27900        3.39800        1.59400
C          2.72700        2.40200        0.78900
H          0.67600       -0.96200       -0.55300
H          0.54300        0.78400       -0.30100
H          0.63100       -0.30500        1.08900
H          2.94600       -1.01000        0.38000
H          2.62000        1.07000       -1.67700
H          2.63700       -0.54900       -1.93600
H          4.90100       -0.71400       -1.19000
H          4.88100        1.03400       -0.84600
H          5.00300       -0.30700       -3.58000
H          4.90000        2.67400       -2.80800
H          5.30400        1.92600       -4.45100
H          4.11100       -0.32000        2.32500
H          5.05600        1.45500        3.74000
H          4.55600        3.83400        3.27200
H          3.05300        4.44500        1.40400
H          2.06900        2.70900       -0.02100
