29
2047-89-4.pdb
C          3.03900       -0.49900        1.03800
C          3.22400        0.93200        0.50500
C          2.25500        1.38600       -0.59000
C          0.87900        0.85500       -0.39100
N         -0.21200        1.65500       -0.15900
C         -1.34600        0.88400       -0.02700
C         -2.67100        1.26100        0.21700
C         -3.63000        0.24400        0.29700
C         -3.27500       -1.09100        0.14200
C         -1.94200       -1.45100       -0.09000
C         -0.95600       -0.44400       -0.17400
C          0.45900       -0.46400       -0.37700
C          1.32100       -1.67800       -0.51900
C          2.78000       -1.54000       -0.05500
H          2.23300       -0.52100        1.78300
H          3.95200       -0.77200        1.58100
H          4.24500        1.03200        0.11200
H          3.16300        1.62300        1.35500
H          2.62100        1.03900       -1.56400
H          2.25200        2.48100       -0.64000
H         -0.19400        2.66200       -0.09000
H         -2.95400        2.30000        0.34100
H         -4.67000        0.50400        0.48100
H         -4.03400       -1.86800        0.20400
H         -1.67300       -2.49500       -0.20500
H          1.31100       -1.99900       -1.56800
H          0.86200       -2.49500        0.05300
H          3.42500       -1.33300       -0.91800
H          3.09700       -2.52200        0.31900
