14
20485-41-0.pdb
C         -2.59300       -0.39100       -0.01000
C         -1.11600       -0.20500       -0.00100
N         -0.61600        1.09000       -0.00800
C          0.69600        1.06200        0.00100
S          1.41100       -0.49300        0.01700
C         -0.15300       -1.20500        0.01300
C         -0.36400       -2.63900        0.02400
O          0.79300       -3.35200        0.03600
O         -1.45200       -3.19600        0.02300
H         -3.10900        0.57400       -0.01100
H         -2.91500       -0.94600        0.87600
H         -2.90300       -0.94100       -0.90400
H          1.29200        1.96600       -0.00100
H          1.58000       -2.77600        0.03500
