30
2049-96-9.pdb
C          1.04600        0.05800       -0.13400
C          2.56600       -0.00700       -0.11500
C          3.10900       -0.68700       -1.37100
C          4.63400       -0.75400       -1.35800
C          5.16500       -1.45800       -2.60600
O          6.59800       -1.54000       -2.57600
C          7.08500       -2.54900       -1.81500
O          6.42700       -3.34900       -1.16700
C          8.56100       -2.52500       -1.79100
C          9.31300       -2.08000       -2.88500
C         10.70700       -2.08000       -2.81000
C         11.34700       -2.52200       -1.65000
C         10.59900       -2.98000       -0.56500
C          9.20700       -2.98700       -0.63700
H          0.67600        0.54700        0.77200
H          0.61200       -0.94600       -0.18100
H          0.68900        0.62700       -0.99800
H          2.89100       -0.55500        0.77700
H          2.96900        1.01000       -0.03700
H          2.77300       -0.14000       -2.26000
H          2.70000       -1.70200       -1.44100
H          4.97400       -1.27800       -0.45700
H          5.06400        0.25300       -1.29600
H          4.88900       -0.89300       -3.50200
H          4.73200       -2.46000       -2.71800
H          8.82300       -1.74400       -3.79500
H         11.29600       -1.73400       -3.65600
H         12.43300       -2.51200       -1.59200
H         11.09800       -3.32800        0.33500
H          8.62400       -3.34500        0.21000
