26
2049-73-2.pdb
C          0.91900       -0.48300        0.00600
C          2.40200       -0.69500        0.25500
O          3.01000       -1.14400       -0.95700
C          4.35300       -1.41400       -0.90400
C          5.17000       -1.24700        0.21400
C          6.52600       -1.56300        0.14400
C          7.07700       -2.04800       -1.04300
C          6.27300       -2.22200       -2.17000
O          6.69600       -2.69600       -3.38400
C          8.07000       -3.07500       -3.47600
C          8.33600       -3.61500       -4.86900
C          4.91300       -1.89700       -2.09300
H          0.42500       -0.11400        0.91000
H          0.44100       -1.41900       -0.29900
H          0.76100        0.23800       -0.80200
H          2.52300       -1.44800        1.04200
H          2.84600        0.25600        0.57200
H          4.78400       -0.87400        1.15700
H          7.15800       -1.43100        1.01800
H          8.13600       -2.28000       -1.05100
H          8.29900       -3.85900       -2.74500
H          8.71300       -2.20200       -3.30600
H          7.72000       -4.49900       -5.06400
H          9.38900       -3.89000       -4.98100
H          8.08100       -2.87100       -5.63000
H          4.28200       -2.02500       -2.96900
