30
2049-80-1.pdb
C          1.68700        1.30900        0.74900
C          2.35000        0.02300        0.28800
O          3.13200       -0.48700        1.37800
C          4.39400        0.02400        1.47800
O          4.90600        0.72900        0.61800
C          4.96700       -0.19900        2.86100
C          4.39300       -1.40700        3.61600
C          4.74800       -2.74300        3.02200
C          5.43900       -3.68400        3.67400
C          6.47400       -0.22400        2.86500
O          7.19200       -0.29900        1.87800
O          6.94900       -0.14100        4.14500
C          8.37900       -0.10200        4.26400
C          8.98900       -1.47700        4.05000
H          1.08900        1.75500       -0.04900
H          2.43300        2.03800        1.08300
H          1.04000        1.11100        1.61100
H          2.95300        0.17600       -0.61400
H          1.59000       -0.72700        0.04700
H          4.67100        0.70600        3.41000
H          3.29900       -1.33700        3.66300
H          4.72800       -1.36700        4.66100
H          4.40600       -2.95200        2.00900
H          5.79300       -3.53700        4.69100
H          5.66300       -4.63600        3.20200
H          8.60800        0.24800        5.27700
H          8.79700        0.63700        3.56800
H          8.61200       -2.18200        4.79700
H         10.07900       -1.42900        4.12300
H          8.72900       -1.88800        3.07000
