27
2049-95-8.pdb
C          2.73100        0.57700       -1.40800
C          2.36900        0.07000       -0.01600
C          2.95000        0.89400        1.17300
C          2.34900        2.32000        1.14100
C          2.44600        0.24400        2.48800
C          4.49200        0.87600        1.18100
C          5.26200        2.05200        1.12700
C          6.65900        2.01200        1.17700
C          7.32100        0.79500        1.28100
C          6.58700       -0.38500        1.32300
C          5.19000       -0.34400        1.27100
H          2.26900       -0.06500       -2.16500
H          3.81300        0.55900       -1.57400
H          2.36700        1.59300       -1.57800
H          2.68200       -0.97900        0.05700
H          1.27200        0.05700        0.06000
H          1.25400        2.28800        1.14200
H          2.65800        2.88100        0.25200
H          2.65500        2.90200        2.01900
H          1.35200        0.27500        2.54800
H          2.84300        0.76600        3.36600
H          2.74000       -0.80800        2.57000
H          4.79700        3.03100        1.05300
H          7.22700        2.93800        1.14100
H          8.40600        0.76700        1.32900
H          7.09900       -1.34000        1.40400
H          4.65100       -1.28800        1.31100
