26
2050-46-6.pdb
C          1.06600       -0.18500       -1.06900
C          2.57900       -0.16900       -1.17200
O          3.06300        1.05300       -0.61300
C          4.41100        1.29900       -0.70800
C          5.33000        0.36100       -1.20700
C          6.68300        0.67900       -1.34800
C          7.14000        1.94100       -0.99300
C          6.24500        2.87500       -0.47800
C          4.88900        2.55800       -0.30700
O          4.16100        3.59700        0.21300
C          3.05100        3.25600        1.04200
C          2.86700        4.37500        2.05300
H          0.66300       -1.11400       -1.48800
H          0.63200        0.66200       -1.61100
H          0.74700       -0.10000       -0.02700
H          2.86000       -0.24300       -2.22900
H          2.98000       -1.02100       -0.61200
H          5.02500       -0.63500       -1.51000
H          7.37500       -0.05800       -1.74600
H          8.18900        2.20000       -1.11400
H          6.60300        3.86200       -0.19500
H          3.21500        2.32000        1.58800
H          2.15100        3.18100        0.42100
H          3.74600        4.45100        2.70200
H          1.98600        4.19800        2.67700
H          2.75900        5.34300        1.55200
