27
20513-98-8.pdb
C          0.80400       -0.31500       -0.20700
C          2.12000        0.12600        0.41900
C          1.89100        0.35200        1.93000
O          2.57500        1.33000       -0.20900
C          3.94800        1.37700        0.13000
O          4.87900        1.81100       -0.89800
C          6.03200        1.11900       -0.45700
C          7.34700        0.95800       -1.15300
O          8.15500        2.10800       -0.96000
C          7.78300       -0.27300       -0.33600
O          8.93000       -0.51000        0.01200
O          6.67900       -1.00000        0.07700
C          5.54500       -0.30300       -0.40400
C          4.35100       -0.06200        0.49800
O          3.17100       -0.84200        0.24200
H          0.03300        0.45600       -0.06700
H          0.44300       -1.25000        0.23700
H          0.90500       -0.47300       -1.28200
H          1.14300        1.13000        2.10500
H          2.80000        0.67500        2.44900
H          1.57800       -0.57900        2.41500
H          4.07300        2.05800        0.98400
H          6.27900        1.52100        0.54300
H          7.28500        0.72000       -2.21800
H          8.98600        1.81500       -0.53700
H          5.24000       -0.71800       -1.38000
H          4.63000       -0.18200        1.54800
