33
2051-31-2.pdb
C          0.98600       -0.03300       -0.02700
C          2.50600       -0.01400       -0.03800
C          3.04300        0.08600       -1.46400
C          4.56800        0.10700       -1.48600
C          5.08100        0.21400       -2.92200
C          6.60700        0.22900       -2.95100
C          7.16500        0.31100       -4.37500
O          6.71900        1.51500       -5.00100
C          8.69800        0.29200       -4.40300
C          9.28700       -0.98600       -3.80600
C         10.80100       -0.97800       -3.83700
H          0.61600       -0.10500        0.99900
H          0.60400       -0.89000       -0.59200
H          0.58300        0.88000       -0.47500
H          2.88300       -0.92600        0.43900
H          2.86200        0.83600        0.55500
H          2.65900        0.99700       -1.93900
H          2.68000       -0.76400       -2.05500
H          4.95900       -0.80600       -1.02000
H          4.93800        0.95500       -0.89700
H          4.68800        1.12600       -3.38500
H          4.71600       -0.63600       -3.50800
H          6.96000       -0.68100       -2.45600
H          6.96900        1.08500       -2.36600
H          6.78000       -0.52100       -4.97600
H          7.02300        2.26400       -4.46100
H          9.08500        1.17100       -3.87200
H          9.03600        0.40700       -5.44200
H          8.90800       -1.85700       -4.35200
H          8.98100       -1.10100       -2.76000
H         11.17400       -0.90300       -4.86300
H         11.18800       -1.90200       -3.39500
H         11.19600       -0.13500       -3.26000
