28
2052-15-5.pdb
C          2.43100        1.71900        0.33100
C          3.21800        1.14600        1.49600
C          3.80800       -0.23200        1.18700
C          4.58100       -0.73500        2.39700
O          5.08900       -2.05900        2.21300
C          6.44800       -2.12600        2.16800
O          7.17500       -1.32400        1.59800
C          6.91400       -3.24900        3.05900
C          8.43300       -3.30700        3.14700
C          8.89300       -4.33700        4.16000
C         10.38300       -4.50400        4.33300
O          8.10800       -5.01200        4.81700
H          2.03300        2.70400        0.59600
H          1.58900        1.07200        0.07000
H          3.06700        1.83700       -0.55100
H          2.55800        1.07800        2.37000
H          4.02400        1.84200        1.75900
H          4.47000       -0.18200        0.31400
H          3.01200       -0.94200        0.93000
H          3.90800       -0.79500        3.26000
H          5.37800       -0.03200        2.66900
H          6.50800       -4.19700        2.69500
H          6.50400       -3.05100        4.05700
H          8.83500       -2.33400        3.45400
H          8.85900       -3.56400        2.17100
H         10.92500       -3.81800        3.67900
H         10.65900       -5.52700        4.07800
H         10.64900       -4.28400        5.37100
