28
20567-38-8.pdb
C          1.01700       -0.33300       -0.36500
O          2.37400        0.02300       -0.11800
C          3.11600       -0.84600        0.64100
C          2.81200       -2.21800        0.73500
C          3.61200       -3.12500        1.46100
C          3.23800       -4.55300        1.48900
C          1.97400       -5.00600        1.44600
C          1.61900       -6.49400        1.39400
O          2.58300       -7.30300        1.45100
O          0.37900       -6.70900        1.28100
C          4.76500       -2.60300        2.05700
C          5.09800       -1.24300        1.96700
C          4.27200       -0.35800        1.27100
O          4.74800        0.92700        1.25500
C          3.78200        1.96600        1.16900
N          5.68500       -3.43900        2.80500
O          6.33400       -4.28200        2.17300
O          5.84200       -3.16300        4.00400
H          0.54000        0.51500       -0.86500
H          0.48100       -0.51500        0.57300
H          0.94200       -1.19000       -1.04100
H          1.95200       -2.61900        0.20700
H          4.04400       -5.28700        1.51800
H          1.11400       -4.34400        1.42400
H          6.00200       -0.86500        2.44200
H          4.25800        2.88500        1.52700
H          2.91400        1.77600        1.80900
H          3.48900        2.14100        0.13000
