21
20583-31-7.pdb
O          1.27800       -0.71700       -0.21300
N          2.28400       -0.01900       -0.02100
O          2.68000        0.87000       -0.78800
C          3.06200       -0.26400        1.20000
C          2.64500       -1.25000        2.10100
C          3.39200       -1.48700        3.25900
C          4.55700       -0.75000        3.52900
C          4.95400        0.24100        2.61700
C          4.21400        0.48700        1.45500
C          5.34500       -1.00400        4.73400
N          5.42700       -2.23200        5.34900
N          6.20600       -2.25100        6.44100
C          6.65400       -0.99800        6.52800
C          6.15900       -0.18400        5.49400
H          1.74600       -1.83700        1.92200
H          3.03500       -2.24400        3.95400
H          5.85500        0.82600        2.79600
H          4.55200        1.25900        0.76600
H          4.98500       -3.09800        5.06500
H          7.32000       -0.73200        7.33900
H          6.36100        0.86600        5.33500
