16
207233-91-8.pdb
O          7.32500        0.20400       -0.14000
S          6.91800        1.33900       -0.96000
O          7.49400        2.62600       -0.57800
O          6.90200        1.09000       -2.40000
C          5.19800        1.52900       -0.57800
C          4.89300        1.56700        0.92000
S          3.03600        1.53700        1.07800
C          5.48200        2.79600        1.63900
S          5.08000        2.89300        3.42900
H          4.70000        0.67000       -1.04400
H          4.85700        2.43800       -1.08800
H          5.25900        0.65500        1.40500
H          2.79200        2.50000        0.17600
H          5.13700        3.72300        1.16800
H          6.57200        2.78800        1.60200
H          3.75500        2.75600        3.27800
