20
207605-40-1.pdb
C          0.91700       -0.05000        0.04400
C          2.43600       -0.05900        0.05300
C          2.97800       -0.58900        1.38000
C          4.50400       -0.59100        1.37900
C          5.06700       -1.11900        2.69400
S          6.84900       -1.12600        2.70600
O          7.19600       -2.00500        1.59200
O          7.19900        0.28100        2.52000
O          7.16200       -1.66300        4.02900
H          0.54500        0.33100       -0.91100
H          0.52700        0.58800        0.84300
H          0.52100       -1.06100        0.18700
H          2.80500        0.95900       -0.12100
H          2.80000       -0.68000       -0.77300
H          2.60600       -1.60700        1.55000
H          2.60800        0.03300        2.20500
H          4.87000        0.42700        1.20200
H          4.86700       -1.20600        0.54700
H          4.73700       -2.14800        2.87300
H          4.73800       -0.50100        3.53600
