17
207801-20-5.pdb
C          2.47500       -0.01100       -0.01100
C          0.97700        0.01000        0.01100
C          0.27100        1.21900       -0.02000
C         -1.12700        1.22200       -0.02400
C         -1.83600        0.01900        0.00400
C         -1.13600       -1.18900        0.04600
C          0.26200       -1.19500        0.04400
S         -3.61100        0.02700        0.00700
O         -4.09900        1.25400       -0.72500
O         -4.11600       -1.30500       -0.49200
H          2.89100        1.00200        0.00300
H          2.83100       -0.50900       -0.91800
H          2.85900       -0.54200        0.86600
H          0.79700        2.16900       -0.05100
H         -1.67100        2.16300       -0.05900
H         -1.68600       -2.12700        0.06100
H          0.78300       -2.14700        0.05800
