43
20806-43-3.pdb
O          3.23600       -0.20600       -1.13400
C          2.51700        0.08800       -0.01800
O          1.40200       -0.37100        0.17500
C          3.21800        1.09800        0.89000
C          2.79100        0.85400        2.34000
O          3.41900        1.79300        3.21900
C          3.00300        1.59100        4.57100
C          3.64500        2.59000        5.50300
C          3.96600        3.88600        5.07900
C          4.48900        4.81700        5.97300
C          4.69300        4.46500        7.31000
C          4.37600        3.18200        7.74700
C          3.85100        2.25100        6.84600
N          4.67100        0.99100        0.70500
C          5.48800        2.06500        0.88000
O          5.11700        3.22900        0.82300
O          6.76400        1.64700        1.01000
C          7.76300        2.63600        0.72900
C          8.57300        3.10300        1.91500
C          9.91400        3.47600        1.70600
C         10.67800        4.02600        2.73600
C         10.11000        4.21700        3.99100
C          8.78100        3.85600        4.21500
C          8.01300        3.30600        3.18200
H          4.05400        0.33500       -1.16000
H          2.90700        2.10300        0.57200
H          3.06800       -0.16100        2.64800
H          1.70300        0.95900        2.42900
H          3.28500        0.57300        4.87100
H          1.91400        1.69900        4.64300
H          3.80200        4.18000        4.04300
H          4.73300        5.81900        5.63600
H          5.09400        5.19800        8.01300
H          4.52700        2.90800        8.78700
H          3.59400        1.25400        7.21200
H          5.12700        0.09500        0.87400
H          7.35300        3.51200        0.21000
H          8.44000        2.14600        0.01700
H         10.36800        3.35900        0.72400
H         11.70800        4.31900        2.55100
H         10.69900        4.65800        4.79200
H          8.33500        4.01900        5.19300
H          6.97000        3.06200        3.37500
