25
208113-95-5.pdb
C          1.25000        2.66800       -0.35300
O          2.65200        2.51200       -0.17300
C          3.07300        1.27600        0.21300
O          2.33500        0.33800        0.49900
C          4.59600        1.21400        0.30900
C          5.15500        0.64700       -1.00100
C          4.87600        1.55700       -2.19400
O          3.79300        1.33300       -2.79900
O          5.77900        2.40600       -2.44100
C          5.21900        2.56200        0.77800
C          4.66700        2.99200        2.14800
C          6.74700        2.51400        0.87300
H          1.02600        3.73700       -0.28700
H          0.67700        2.15700        0.42800
H          0.96300        2.31100       -1.34300
H          4.80800        0.47700        1.09700
H          4.69600       -0.33000       -1.20700
H          6.23100        0.45900       -0.92200
H          4.96100        3.35100        0.06000
H          4.93600        2.27300        2.92900
H          3.57800        3.09100        2.14300
H          5.07300        3.96900        2.43300
H          7.07900        1.73500        1.56700
H          7.13600        3.47400        1.23200
H          7.21000        2.32900       -0.10000
