26
20826-94-2.pdb
C          3.72700        1.24900        2.85400
C          3.03300        0.61900        1.65800
O          3.31100       -0.79000        1.69800
C          4.46100       -1.17100        1.07600
O          5.07000       -0.50800        0.24900
C          4.93000       -2.47800        1.64900
C          6.45500       -2.54900        1.66200
C          7.15600       -1.43100        2.45200
C          7.54900       -2.01500        3.79900
C          7.81300       -3.49200        3.55200
C          6.90900       -3.79100        2.38800
O          6.59700       -4.92800        2.05500
H          3.48900        2.31100        2.93200
H          4.81400        1.13700        2.77600
H          3.42700        0.74400        3.77900
H          3.34600        1.07800        0.71600
H          1.95100        0.73800        1.74700
H          4.50700       -3.29300        1.05000
H          4.54800       -2.58500        2.67200
H          6.84900       -2.56800        0.63900
H          6.54000       -0.53700        2.58800
H          8.05500       -1.11500        1.91000
H          6.73200       -1.89100        4.51700
H          8.43100       -1.51300        4.21400
H          7.54700       -4.09400        4.42300
H          8.84800       -3.67100        3.25700
