44
20824-56-0.pdb
N         -1.12900        0.38800       -1.00800
N          1.33000        0.59000        2.02000
O          2.74500        0.65900       -0.45500
C          2.24800       -0.60300       -0.60000
O          1.07100       -0.79800       -0.30400
C          3.28400       -1.58400       -1.13300
N          4.64900       -1.06600       -0.82700
C          5.01900       -1.08900        0.62000
C          5.07400       -2.46300        1.32700
N          5.31200       -2.49100        2.79500
C          4.44200       -1.58700        3.58100
C          4.86200       -1.52200        5.04500
O          6.18500       -1.77000        5.21400
O          4.12800       -1.13300        5.94300
C          5.12000       -3.93800        3.22800
C          3.65600       -4.51400        3.12400
O          2.74300       -3.73400        2.70400
O          3.55200       -5.71200        3.50800
C          5.64200       -1.92700       -1.58600
C          5.40300       -1.87100       -3.12400
O          5.98900       -0.93000       -3.72600
O          4.57000       -2.71900       -3.56100
H         -0.31000        0.99900       -1.10700
H         -1.74300        0.68400       -0.24600
H         -0.74600       -0.55700       -0.82200
H         -1.64100        0.36800       -1.89400
H          2.08700        0.97300        1.43300
H          0.94300       -0.22600        1.51900
H          0.62300        1.30200        2.21100
H          1.72700        0.23900        2.90000
H          3.68000        0.58500       -0.81600
H          3.07800       -1.57000       -2.20000
H          3.09700       -2.58800       -0.73800
H          4.31400       -0.43800        1.14500
H          5.99300       -0.59400        0.72900
H          5.89600       -3.03200        0.87900
H          4.15800       -2.99100        1.06800
H          3.37600       -1.80700        3.53600
H          4.57100       -0.55700        3.23400
H          6.52400       -2.10400        4.34700
H          5.46000       -4.06000        4.26200
H          5.78900       -4.56700        2.62500
H          5.57900       -2.97600       -1.27200
H          6.66000       -1.57500       -1.38200
