22
20859-02-3.pdb
C          0.89900       -0.07000        0.04100
C          2.44500       -0.03600       -0.02200
C          2.87100       -0.43000       -1.44800
C          2.85200        1.43300        0.23300
C          3.04600       -0.98500        1.06700
N          2.65600       -2.42500        0.89700
C          4.59500       -0.96900        1.21800
O          5.04900       -2.19100        1.61400
O          5.34100       -0.01300        1.07200
H          0.46200        0.65300       -0.65800
H          0.54100        0.18600        1.04500
H          0.49600       -1.05200       -0.22400
H          2.50500        0.29800       -2.18100
H          2.46100       -1.40400       -1.73800
H          3.96000       -0.47900       -1.54600
H          2.37800        2.10300       -0.49400
H          3.92700        1.59600        0.14000
H          2.54000        1.75900        1.23200
H          2.66500       -0.68000        2.05000
H          2.90700       -2.71700       -0.05400
H          1.63500       -2.48800        0.92100
H          4.25000       -2.77300        1.65800
