31
20876-37-3.pdb
C          2.13400       -0.24100       -1.61000
C          0.81200       -0.13700       -0.89900
C          0.32000        1.09500       -0.43800
O          1.19700        2.16100       -0.41900
C          0.83300        3.21800        0.47800
C          1.99000        4.02900        1.02600
C          1.72000        5.31400        1.53500
C          2.67800        6.01000        2.27300
C          3.92400        5.43800        2.50400
C          4.22300        4.18400        1.96900
C          3.26300        3.48100        1.23300
C         -1.01400        1.18600        0.00100
C         -1.82100        0.05200        0.11100
C         -1.29900       -1.19600       -0.19700
C          0.01100       -1.27900       -0.68700
N          0.54700       -2.60800       -0.91800
O          1.56000       -2.93000       -0.28100
O         -0.06700       -3.33600       -1.71000
H          2.44400        0.72200       -2.03000
H          2.04400       -0.91900       -2.46900
H          2.91600       -0.60600       -0.94100
H          0.35000        2.81300        1.37800
H          0.14000        3.88700       -0.05100
H          0.73800        5.76100        1.39800
H          2.43900        6.98500        2.69200
H          4.65900        5.96100        3.11100
H          5.19800        3.74000        2.15200
H          3.50200        2.48800        0.85900
H         -1.45700        2.14000        0.27400
H         -2.84500        0.14700        0.46800
H         -1.90600       -2.08800       -0.05900
