38
20880-92-6.pdb
C          1.00800       -0.04700       -0.45900
C          2.22300        0.15200        0.43600
C          1.80500       -0.09700        1.89800
O          2.73900        1.48400        0.29600
C          4.06200        1.36400        0.81000
C          5.05100        2.37500        0.29600
O          6.34100        1.88700        0.70600
C          6.79700        0.89100       -0.23600
C          7.48100        1.74000       -1.33800
O          8.37100        2.68700       -0.70500
O          7.85600        0.07300        0.29400
C          7.68500       -1.21100       -0.32300
C          8.19400       -1.30300       -1.77200
C          8.44700       -2.24400        0.49900
O          6.28300       -1.45800       -0.37900
C          5.67100       -0.14500       -0.53100
C          4.50500       -0.05800        0.49000
O          3.29600       -0.72600        0.06100
H          0.23400        0.69800       -0.24400
H          0.57600       -1.04500       -0.32100
H          1.27300        0.04900       -1.51800
H          1.11100        0.67800        2.24200
H          2.65800       -0.09000        2.58300
H          1.33500       -1.08000        2.01100
H          4.01200        1.49300        1.89800
H          4.87900        3.36000        0.74900
H          4.96000        2.52300       -0.77900
H          6.77300        2.32800       -1.92500
H          8.11700        1.18000       -2.01700
H          8.26000        2.55600        0.26800
H          9.22000       -0.93800       -1.86800
H          7.56000       -0.74200       -2.46600
H          8.14200       -2.33600       -2.13500
H          9.51800       -2.00800        0.50300
H          8.31800       -3.25500        0.09800
H          8.11500       -2.25300        1.54200
H          5.30000       -0.06600       -1.55800
H          4.82000       -0.55900        1.41600
