19
2089-36-3.pdb
O          1.07400        0.01800       -0.56600
N          2.43500       -0.30400       -0.57900
C          3.12000        0.77700       -0.78100
C          4.59400        0.77400       -0.83100
C          5.26400        2.00200       -1.00700
C          6.66200        2.04500       -1.02700
C          7.34200        0.85600       -0.86900
O          8.69400        0.71200       -0.84500
C          8.81300       -0.70700       -0.61300
O          7.54200       -1.38800       -0.56500
C          6.68500       -0.34200       -0.70700
C          5.30900       -0.42100       -0.68900
H          0.65800       -0.84500       -0.37900
H          2.61400        1.75100       -0.91400
H          4.70300        2.92800       -1.11800
H          7.19600        2.98000       -1.15400
H          9.33000       -0.86400        0.34100
H          9.41700       -1.14500       -1.41600
H          4.80900       -1.37400       -0.55700
