16
20928-63-6.pdb
C          1.13800        0.25900        0.18200
O          2.52000       -0.04500        0.03300
C          3.11700        0.44600       -1.11900
C          4.11800       -0.25400       -1.67900
C          4.80600        0.19900       -2.86500
C          4.45700        1.35900       -3.43200
N          3.45000        2.11200       -2.89300
C          2.73500        1.76300       -1.76600
O          1.85300        2.50300       -1.34000
H          0.74500       -0.37300        0.98500
H          0.57700        0.03300       -0.73000
H          0.99400        1.29700        0.49500
H          4.43600       -1.19400       -1.24000
H          5.60300       -0.41200       -3.27200
H          4.94300        1.74900       -4.32000
H          3.19000        2.99500       -3.31300
