28
209863-09-2.pdb
C          1.22700        0.29500        0.60400
O          2.35200       -0.05600       -0.19400
C          2.91700        0.95000       -0.93200
C          2.42200        2.24600       -1.05100
C          3.09100        3.17400       -1.84500
C          4.26600        2.81300       -2.50700
C          4.81800        1.52600       -2.37700
C          4.10200        0.59900       -1.59700
C          6.12900        1.19100       -2.98500
C          7.15300        2.15700       -3.05600
C          8.41200        1.86100       -3.58400
C          8.68000        0.57600       -4.04700
C         10.01700        0.25100       -4.58400
O         10.91400        1.08500       -4.65700
C          7.68800       -0.40500       -4.00000
C          6.42500       -0.09500       -3.47600
H          0.92600       -0.59300        1.16700
H          0.38000        0.59700       -0.02000
H          1.48400        1.07600        1.32800
H          1.52000        2.56700       -0.54200
H          2.70500        4.18500       -1.94200
H          4.75500        3.56400       -3.12400
H          4.47800       -0.41200       -1.46100
H          6.98900        3.16200       -2.67100
H          9.17800        2.63200       -3.62000
H         10.17200       -0.78800       -4.91700
H          7.88500       -1.41400       -4.35300
H          5.66900       -0.87800       -3.45700
