26
2103-57-3.pdb
C          0.97500       -0.40600        0.05000
O          2.35300       -0.05300       -0.04300
C          3.01300        0.17600        1.13500
C          2.61300       -0.43400        2.32600
C          3.33600       -0.24200        3.50100
C          4.48600        0.55400        3.51600
C          5.09000        0.75200        4.85800
O          4.95600       -0.06600        5.75500
C          4.93900        1.15100        2.32600
O          6.03500        1.97000        2.19800
C          7.20100        1.71000        2.96400
C          4.17400        0.98300        1.13500
O          4.69400        1.60500        0.01900
C          3.77700        2.07000       -0.96400
H          0.56900       -0.46200       -0.96400
H          0.41400        0.36000        0.59800
H          0.84000       -1.39300        0.50200
H          1.74500       -1.08300        2.38400
H          2.98100       -0.71400        4.42100
H          5.63900        1.69100        5.01700
H          8.07900        1.91400        2.34200
H          7.27800        0.67600        3.31600
H          7.23700        2.41300        3.80100
H          4.28800        2.83500       -1.56100
H          2.89300        2.53900       -0.52100
H          3.50500        1.26800       -1.65500
