22
2107-76-8.pdb
C          0.89500       -0.10100       -0.05600
C          2.39400       -0.02300       -0.05600
C          3.13200       -1.14400       -0.05600
C          4.59900       -1.15300       -0.05700
O          5.22400       -2.20800       -0.05600
O          5.22600        0.08000       -0.05900
C          4.48500        1.28000       -0.05900
C          5.24800        2.45200       -0.06000
C          4.59000        3.67100       -0.05900
O          5.26700        4.85400       -0.06000
C          3.20200        3.72800       -0.05600
C          2.45700        2.54300       -0.05500
O          1.09100        2.64500       -0.05300
C          3.08400        1.28300       -0.05700
H          0.53900       -1.13700       -0.05700
H          0.48000        0.37400       -0.95100
H          0.48000        0.37300        0.83900
H          2.67600       -2.12800       -0.05600
H          6.33100        2.38800       -0.06200
H          6.22200        4.67000       -0.06000
H          2.71700        4.69900       -0.05500
H          0.83800        3.58200       -0.05400
