22
2107-77-9.pdb
C          0.99700        0.00100       -0.04900
C          2.49600       -0.00100       -0.03500
C          3.20100        1.14100       -0.04300
C          4.67100        1.18700       -0.00100
O          5.26900        2.25400       -0.05000
O          5.33400       -0.02300        0.11900
C          4.62600       -1.23900        0.07100
C          5.38200       -2.40900        0.09300
O          6.74500       -2.39200        0.21100
C          4.74500       -3.63800       -0.01100
O          5.47300       -4.79100       -0.01700
C          3.36400       -3.70800       -0.11300
C          2.60800       -2.52900       -0.10300
C          3.23200       -1.27300       -0.01900
H          0.59000        1.01700       -0.08900
H          0.60300       -0.47000        0.85900
H          0.61100       -0.53500       -0.92200
H          2.72000        2.11200       -0.07500
H          7.00200       -1.45500        0.31800
H          6.40400       -4.50100        0.06500
H          2.87400       -4.67400       -0.20000
H          1.52700       -2.61800       -0.17500
