25
2109-66-2.pdb
C          2.52800       -0.28400        3.11700
C          2.20400       -0.17200        1.63300
O          0.79100        0.01900        1.49300
C          2.94000        0.98600        0.91800
N          4.40900        1.01100        1.02600
C          4.96900        2.19800        0.33400
C          4.98800        2.07800       -1.20100
O          5.70800        0.91200       -1.61700
C          5.13000       -0.26900       -1.04900
C          5.08100       -0.19200        0.48800
H          1.95400       -1.10200        3.56600
H          2.24200        0.62800        3.65400
H          3.59000       -0.47500        3.29000
H          2.43500       -1.12100        1.14000
H          0.54300        0.79400        2.02900
H          2.55200        1.92200        1.34300
H          2.61400        0.99300       -0.13100
H          6.00300        2.32000        0.68200
H          4.43700        3.10800        0.63400
H          5.49100        2.94800       -1.63400
H          3.97600        2.04300       -1.62200
H          5.75600       -1.11500       -1.35100
H          4.13400       -0.42600       -1.47800
H          6.11500       -0.16800        0.85600
H          4.64800       -1.11000        0.89600
