18
2110-78-3.pdb
C          1.09800        0.00100        0.18800
O          2.52200        0.07200        0.11200
C          3.08800        0.91900        1.01400
O          2.47100        1.58900        1.83500
C          4.62700        0.89000        0.93500
C          5.13500       -0.49800        1.31500
C          5.10300        1.30100       -0.45500
O          5.19600        1.82300        1.86400
H          0.76200       -0.80100       -0.47600
H          0.65500        0.94400       -0.15100
H          0.77000       -0.23700        1.20500
H          4.79700       -1.26400        0.61000
H          4.78100       -0.77900        2.31300
H          6.23000       -0.51800        1.35200
H          4.75900        0.60700       -1.22900
H          6.19600        1.35200       -0.49600
H          4.73200        2.30100       -0.71000
H          4.58700        1.86600        2.62700
