30
2110-18-1.pdb
C          0.94500       -0.05300        0.08200
C          0.41200       -1.20100       -0.77300
C         -1.09700       -1.23200       -0.78200
C         -1.82000       -0.49400       -1.72900
C         -3.21600       -0.52500       -1.73500
C         -3.90300       -1.28700       -0.79100
C         -3.19400       -2.01000        0.16700
C         -1.79600       -1.97800        0.17600
C          2.47500       -0.00500        0.08200
C          2.95200        1.13500        0.94600
C          3.13500        2.40400        0.40200
C          3.46100        3.45700        1.25000
C          3.60000        3.21600        2.61200
C          3.41400        1.92200        3.06800
N          3.09400        0.88200        2.26900
H          0.57900       -0.15800        1.11200
H          0.54600        0.90000       -0.28900
H          0.79600       -2.16000       -0.40300
H          0.77700       -1.10600       -1.80400
H         -1.29900        0.10900       -2.46800
H         -3.76800        0.04600       -2.47700
H         -4.98800       -1.31500       -0.80000
H         -3.72700       -2.59600        0.91000
H         -1.25900       -2.54300        0.93400
H          2.86100        0.10900       -0.93800
H          2.88300       -0.94500        0.47100
H          3.00100        2.58000       -0.66100
H          3.59400        4.46000        0.85400
H          3.83900        4.01700        3.30200
H          3.51000        1.68200        4.12200
