13
2114-02-5.pdb
N          1.25200        0.20000       -0.15300
C          2.59400        0.05000       -0.13000
N          2.98100       -0.99800       -0.89000
N          3.30400        0.90600        0.52400
C          4.66500        0.86200        0.55200
N          5.17700        2.11800        0.55700
S          5.73000       -0.42300        0.66900
H          0.68300       -0.63100       -0.20900
H          0.92300        0.86800        0.53600
H          2.35900       -1.79200       -0.91800
H          3.94700       -1.28000       -0.74900
H          4.53700        2.89900        0.56500
H          6.17100        2.26900        0.65200
