10
21169-71-1.pdb
O          2.80300       -0.58200       -1.09700
C          2.34500       -0.05600       -0.03700
O          1.28300       -0.39400        0.57700
C          3.11400        1.05900        0.54800
O          4.27400        1.57500        0.03900
N          4.71700        2.61900        0.84900
C          3.81300        2.70400        1.82700
C          2.79000        1.75600        1.69300
H          3.94300        3.45400        2.59200
H          1.92800        1.57800        2.31800
