24
2116-65-6.pdb
C          1.14300       -0.11600       -0.05000
C          0.47600       -1.47100        0.03600
C          0.22000       -2.05900        1.28400
C         -0.32900       -3.33900        1.36300
C         -0.63300       -4.04200        0.19800
C         -0.39400       -3.46200       -1.04700
C          0.15800       -2.18400       -1.13000
C          2.65800       -0.11100       -0.07800
C          3.44100       -1.26900       -0.02800
C          4.82300       -1.15000       -0.03700
N          5.47700        0.02900       -0.09800
C          4.71100        1.13700       -0.15500
C          3.32400        1.12000       -0.14900
H          0.81100        0.48700        0.80600
H          0.77300        0.39900       -0.94600
H          0.46400       -1.52800        2.20100
H         -0.51400       -3.79200        2.33400
H         -1.05100       -5.04300        0.26000
H         -0.63100       -4.01100       -1.95500
H          0.35500       -1.75000       -2.10800
H          3.00200       -2.26000        0.02100
H          5.45800       -2.03000        0.00900
H          5.25900        2.07400       -0.20500
H          2.77500        2.05500       -0.19400
