26
21170-10-5.pdb
C          1.02200       -0.03300        0.08300
C          2.55500        0.07300        0.09600
C          2.95400        1.50400        0.49100
C          4.27700        1.68000       -0.18400
O          5.11800        2.49600        0.16800
C          4.41700        0.81300       -1.40000
C          3.26000       -0.21100       -1.27700
C          2.35500       -0.10200       -2.51600
C          3.81100       -1.64400       -1.18900
C          4.03800       -1.82200        0.28100
O          4.81200       -2.64200        0.75500
C          3.13500       -0.95500        1.10400
H          0.57100        0.70000       -0.59500
H          0.61300        0.16000        1.08200
H          0.69200       -1.03000       -0.22600
H          3.04500        1.64000        1.57200
H          2.27000        2.25400        0.08100
H          5.40800        0.35400       -1.41300
H          4.30300        1.45700       -2.28000
H          1.91000        0.89300       -2.60600
H          1.53900       -0.83600       -2.48700
H          2.92400       -0.30000       -3.43300
H          4.74300       -1.78000       -1.74600
H          3.07900       -2.39400       -1.50600
H          3.70500       -0.49500        1.91500
H          2.35400       -1.59700        1.52800
