27
21239-29-2.pdb
C          4.25000       -4.07600       -0.47900
C          4.35700       -3.50900        0.92300
O          5.11700       -2.28900        0.91600
C          4.42900       -1.13300        1.09000
O          3.21500       -1.01700        1.11400
C          5.37300        0.00200        1.31000
C          4.84400        1.29200        1.46600
C          5.68800        2.38500        1.69500
C          5.13600        3.77400        1.84800
C          7.07100        2.17300        1.79400
C          7.61400        0.89000        1.65600
C          9.09100        0.65500        1.78400
C          6.75800       -0.19000        1.40600
H          3.86400       -5.10000       -0.44700
H          5.22400       -4.08200       -0.97800
H          3.57400       -3.47200       -1.09100
H          4.91000       -4.21000        1.55600
H          3.36600       -3.38300        1.37100
H          3.76700        1.44100        1.41100
H          4.05100        3.79200        1.71200
H          5.57900        4.43700        1.09800
H          5.36000        4.16300        2.84700
H          7.72800        3.02100        1.98400
H          9.63100        1.58500        1.98900
H          9.48700        0.23300        0.85500
H          9.29100       -0.03700        2.60900
H          7.18300       -1.18400        1.30100
