37
21256-18-8.pdb
O          4.24000        1.73300       -2.61000
C          4.16300        1.01700       -1.46600
O          3.62900        1.44900       -0.45700
C          4.80800       -0.33700       -1.59700
C          4.71300       -1.12300       -0.29400
C          5.33400       -2.46400       -0.43400
O          6.64900       -2.49500       -0.80300
C          6.95000       -3.83100       -0.90300
C          8.28900       -4.14500       -1.38800
C          9.39000       -3.35600       -1.02900
C         10.67600       -3.68400       -1.47100
C         10.87800       -4.80900       -2.26800
C          9.79400       -5.59700       -2.64000
C          8.50800       -5.25500       -2.21700
C          5.81300       -4.53200       -0.52900
N          4.78300       -3.64800       -0.27700
C          5.65400       -5.97400       -0.42300
C          6.71400       -6.80500       -0.02700
C          6.56200       -8.19200        0.00900
C          5.33200       -8.76300       -0.30200
C          4.25400       -7.94900       -0.64900
C          4.41600       -6.56100       -0.71200
H          4.69500        1.27500       -3.34100
H          5.85900       -0.18700       -1.87400
H          4.30600       -0.88300       -2.40400
H          3.66100       -1.24200       -0.00400
H          5.20400       -0.57900        0.52000
H          9.25800       -2.48500       -0.39000
H         11.52200       -3.06400       -1.18500
H         11.87900       -5.06900       -2.60300
H          9.94300       -6.48000       -3.25600
H          7.67600       -5.88100       -2.53700
H          7.67800       -6.38600        0.25100
H          7.40500       -8.82000        0.28300
H          5.20900       -9.84200       -0.26200
H          3.28900       -8.39300       -0.87300
H          3.56800       -5.93800       -0.99300
