28
213270-36-1.pdb
C          0.97500       -0.14000       -0.57400
O          2.40000       -0.06200       -0.57200
C          3.05700       -1.21800       -0.88800
O          2.51500       -2.31000       -1.03900
C          4.56700       -1.00400       -0.82000
C          5.00100       -1.37900        0.61100
C          6.49800       -1.23400        0.94300
C          7.00000        0.19900        0.76600
C          6.74400       -1.70400        2.38100
C          5.26800       -1.84300       -1.89200
C          4.89400       -1.47100       -3.32800
O          5.43200       -2.19900       -4.20900
O          4.13100       -0.47500       -3.46600
H          0.60500        0.40700        0.29700
H          0.58600       -1.16100       -0.51800
H          0.59700        0.34600       -1.47700
H          4.77300        0.05800       -1.00600
H          4.70000       -2.41800        0.80700
H          4.42300       -0.76900        1.32000
H          7.08500       -1.88900        0.29000
H          6.30600        0.92400        1.20200
H          7.12200        0.43900       -0.29500
H          7.97600        0.33700        1.24600
H          6.18200       -1.09800        3.10000
H          7.80600       -1.63900        2.63700
H          6.43700       -2.74900        2.50300
H          5.04600       -2.90900       -1.74800
H          6.35400       -1.72200       -1.81700
