14
2133-34-8.pdb
O          2.81300        1.04500        0.94500
C          2.37100        0.10500        0.05900
O          1.49200       -0.69100        0.36500
C          3.11200        0.20700       -1.32500
C          4.39300       -0.63300       -1.50700
C          4.96600        0.62000       -2.18300
N          3.99500        1.43200       -1.40800
H          3.51800        1.55800        0.48500
H          2.41900        0.13200       -2.17300
H          4.30300       -1.51800       -2.14100
H          4.89600       -0.90700       -0.57200
H          4.80500        0.65800       -3.26700
H          6.01600        0.83600       -1.97000
H          3.58500        2.19500       -1.95300
