36
2140-71-8.pdb
C          3.16500        0.49900        0.95700
O          2.35700       -0.00200       -0.10400
C          2.90300        0.27000       -1.39600
C          2.92500        1.75100       -1.77100
O          1.83800        2.48500       -1.19600
C          2.78900        1.75500       -3.29100
C          4.12700        1.91400       -4.01900
O          5.03800        0.87900       -3.65900
O          2.17600        0.50100       -3.66900
C          2.03200       -0.33100       -2.49800
N          2.37900       -1.70700       -2.81700
C          1.77300       -2.81900       -2.27400
N          2.28900       -3.94600       -2.73200
C          3.28500       -3.55300       -3.60000
C          4.24600       -4.34200       -4.39200
O          4.23200       -5.56900       -4.40400
N          5.18500       -3.60000       -5.11800
C          5.15800       -2.29800       -5.07200
N          6.06900       -1.54700       -5.73400
N          4.25300       -1.54100       -4.37900
C          3.34400       -2.18700       -3.64200
H          2.75400        0.13500        1.90300
H          3.14800        1.59300        0.97600
H          4.19400        0.14200        0.86300
H          3.91600       -0.14900       -1.45300
H          3.83900        2.24400       -1.42600
H          0.99600        2.07400       -1.46000
H          2.11800        2.55200       -3.62800
H          4.59100        2.88200       -3.80600
H          3.97000        1.83400       -5.10000
H          5.57000        1.17900       -2.89800
H          0.97100       -0.32500       -2.22000
H          0.97100       -2.75100       -1.54800
H          6.58300       -2.08700       -6.42200
H          5.71900       -0.67300       -6.10500
H          4.46200       -0.55000       -4.26300
