33
2140-72-9.pdb
C          3.03500        0.95000        0.60600
O          2.31300       -0.14400        0.05600
C          2.80000       -0.59200       -1.21000
C          2.64700        0.42200       -2.34500
O          1.48800        1.25100       -2.20300
C          2.51200       -0.44100       -3.59500
C          3.84000       -0.62500       -4.33500
O          3.67000       -1.46500       -5.47500
O          2.02100       -1.73400       -3.18300
C          2.01000       -1.80900       -1.73800
N          2.56700       -3.10100       -1.31700
C          3.49100       -3.77000       -2.09600
C          4.03000       -4.91700       -1.69900
C          3.60400       -5.40300       -0.37700
N          2.73000       -4.79800        0.35700
C          2.16000       -3.61800       -0.07800
O          1.30900       -3.05500        0.60000
N          4.15200       -6.55800        0.11500
H          2.68300        1.11200        1.63000
H          2.85100        1.86600        0.03900
H          4.10700        0.73600        0.64100
H          3.85700       -0.87200       -1.10600
H          3.50300        1.10300       -2.39100
H          0.68900        0.70600       -2.30800
H          1.76800       -0.03900       -4.29200
H          4.59900       -1.09100       -3.69900
H          4.22000        0.33900       -4.68600
H          3.19600       -2.26200       -5.17400
H          0.96100       -1.75200       -1.41900
H          3.75600       -3.34100       -3.05200
H          4.75000       -5.47000       -2.28300
H          4.47800       -7.25400       -0.54200
H          3.62800       -6.94300        0.89600
