23
2142-73-6.pdb
C          1.05400       -0.42900        0.04300
C          2.52800       -0.12400       -0.07900
O          3.08300       -0.16800       -1.17400
C          3.29100        0.23200        1.16200
C          2.88900       -0.31400        2.39500
C          3.59200       -0.03700        3.57500
C          3.17600       -0.63800        4.88700
C          4.70800        0.80000        3.51800
C          5.11400        1.35200        2.30300
C          4.41800        1.08100        1.11300
C          4.89600        1.72500       -0.16000
H          0.64100       -0.58300       -0.95800
H          0.53200        0.41800        0.49800
H          0.88900       -1.34500        0.61300
H          2.03400       -0.98500        2.45200
H          2.27700       -1.25500        4.78000
H          2.95500        0.15200        5.61100
H          3.97600       -1.27400        5.27900
H          5.27300        1.02400        4.42000
H          5.98800        2.00200        2.29000
H          5.74900        2.39100        0.02500
H          4.10200        2.33400       -0.59900
H          5.23600        0.97100       -0.87500
