24
2142-67-8.pdb
C          0.99000        0.67300        0.45900
C          2.49400        0.84800        0.52200
O          3.03400       -0.17100        1.36100
C          4.38400       -0.14300        1.59300
C          5.24800        0.78600        0.99200
C          6.60200        0.83800        1.33700
C          7.10700       -0.03000        2.29600
C          6.27000       -0.98100        2.87800
C          4.91500       -1.06600        2.50600
C          4.11700       -2.16100        3.13900
C          2.99500       -2.82300        2.37700
O          4.42700       -2.55700        4.26100
H          0.54400        1.43200       -0.18900
H          0.55000        0.75500        1.45800
H          0.73400       -0.31900        0.07400
H          2.71900        1.84000        0.93400
H          2.90400        0.75400       -0.48900
H          4.90100        1.49900        0.25200
H          7.25100        1.56800        0.86200
H          8.15300        0.03100        2.58800
H          6.67700       -1.66000        3.62500
H          2.94900       -2.52400        1.33000
H          2.04200       -2.59800        2.86700
H          3.15900       -3.90600        2.38000
