47
21438-66-4.pdb
N          2.27000        0.06500       -1.13200
C          2.93300        0.25400        0.16800
C          3.14800       -1.11300        0.83900
O          2.20900       -1.81900        1.19800
N          4.46300       -1.50600        0.89500
C          4.91000       -2.82600        1.34700
C          4.33800       -3.99200        0.49500
C          4.69500       -4.05100       -0.98500
C          5.35600       -5.17000       -1.51800
C          5.63200       -5.24900       -2.88500
C          5.23200       -4.22900       -3.74200
C          4.55800       -3.12600       -3.23200
C          4.28900       -3.04400       -1.86700
C          6.46400       -2.73000        1.48100
O          6.99300       -1.69500        1.87800
N          7.16500       -3.86900        1.13400
C          8.56300       -4.00300        1.05100
C          9.02000       -4.81000        0.00700
C         10.36500       -5.13300       -0.10600
C         11.28700       -4.62500        0.80500
C         12.63300       -4.99900        0.70800
C         13.59800       -4.34900        1.46800
C         13.21500       -3.36500        2.37400
C         11.85700       -3.08400        2.57700
C         10.86500       -3.70300        1.79400
C          9.48200       -3.42900        1.93400
H          1.95500        0.96900       -1.48100
H          1.42500       -0.49200       -0.98200
H          2.31400        0.86700        0.83000
H          3.88900        0.75700        0.00600
H          5.19200       -0.82600        0.70800
H          4.52700       -2.95400        2.36700
H          3.24400       -3.99700        0.55400
H          4.63700       -4.93900        0.96600
H          5.64400       -6.00500       -0.88300
H          6.13800       -6.12300       -3.29100
H          5.42300       -4.30100       -4.80800
H          4.21700       -2.33500       -3.89500
H          3.72100       -2.18900       -1.51800
H          6.66600       -4.54100        0.57800
H          8.33800       -5.16000       -0.76300
H         10.69000       -5.74600       -0.94400
H         12.93700       -5.78800        0.02400
H         14.64800       -4.59800        1.33300
H         13.97500       -2.81500        2.92300
H         11.58400       -2.34000        3.32300
H          9.13800       -2.79600        2.74900
