29
2149-70-4.pdb
N          2.95700        1.10100       -1.02100
C          2.45600        0.01100       -0.09500
C          2.97800        0.24900        1.32400
C          2.51100        1.56500        1.96500
C          3.04900        1.70600        3.38700
N          2.63000        2.97600        4.00500
C          2.97600        3.33600        5.27900
N          3.76700        2.50800        5.99100
N          2.52900        4.50300        5.75900
N          2.78800        4.99900        6.97700
O          3.50500        4.33800        7.73100
O          2.26500        6.08500        7.18200
C          0.89900        0.00000       -0.10000
O          0.46500        0.92200       -0.85800
O          0.33700       -0.80400        0.67300
H          3.96100        1.18400       -1.16700
H          2.49100        1.97600       -0.74600
H          2.46200        0.92100       -1.91200
H          2.83700       -0.92900       -0.50600
H          4.07600        0.22100        1.31500
H          2.65900       -0.58400        1.96400
H          1.41700        1.61600        1.99600
H          2.85000        2.42200        1.37100
H          4.14500        1.69000        3.36000
H          2.67300        0.88500        4.00700
H          2.02200        3.59200        3.47100
H          4.10200        1.62100        5.64400
H          4.03700        2.75100        6.94800
H          1.93500        5.11400        5.22500
