26
2150-37-0.pdb
C          1.36200        0.33100        2.64300
O          2.77600        0.42200        2.46600
C          3.18300        0.56200        1.18000
O          2.45900        0.59800        0.19800
C          4.66600        0.68000        1.11800
C          5.27600        0.85000       -0.13400
C          6.66200        0.98200       -0.22100
O          7.38500        1.16700       -1.36800
C          6.66000        1.26000       -2.58800
C          7.43700        0.93600        0.94500
C          6.84000        0.77400        2.19400
O          7.48200        0.73700        3.40000
C          8.89500        0.89000        3.38500
C          5.45400        0.64100        2.27600
H          1.15800        0.35300        3.71700
H          0.99000       -0.61300        2.23600
H          0.85500        1.18400        2.17900
H          4.64700        0.87900       -1.02000
H          7.37700        1.48400       -3.38400
H          5.93100        2.07700       -2.56100
H          6.17900        0.30600       -2.82700
H          8.51300        1.03500        0.84000
H          9.23300        0.95100        4.42500
H          9.19500        1.81800        2.88800
H          9.37300        0.02000        2.92500
H          5.00200        0.51400        3.25600
