13
21512-16-3.pdb
O          1.54100        0.43000       -0.67900
N          2.49100       -0.06200       -0.05600
O          2.91000        0.33000        1.04000
C          3.14600       -1.18400       -0.67400
S          4.42800       -1.97700        0.11200
C          4.59600       -3.09700       -1.16900
C          5.59400       -4.13900       -1.08900
O          5.78300       -4.98400       -1.96100
C          3.69500       -2.85200       -2.18700
C          2.84500       -1.74000       -1.90000
H          6.20900       -4.15800       -0.17300
H          3.64400       -3.45100       -3.09000
H          2.06000       -1.37900       -2.55600
