27
2154-67-8.pdb
C          1.00100        0.12200       -0.08900
C          2.54300        0.09500       -0.06200
C          2.97100        0.16500        1.41600
C          3.06700       -1.15100       -0.69700
C          4.09100       -0.88800       -1.51800
C          4.88100       -1.93900       -2.29200
O          4.32700       -3.07500       -2.38800
O          6.00300       -1.56700       -2.73200
C          4.39800        0.57700       -1.54700
C          4.60100        1.16300       -2.96100
C          5.66400        0.90200       -0.72600
N          3.20600        1.22400       -0.82100
O          2.25500        1.58800       -1.87700
H          0.58500       -0.67700        0.53700
H          0.59700       -0.03000       -1.09600
H          0.61500        1.07400        0.29500
H          2.51800       -0.64800        1.99600
H          2.65500        1.11100        1.87100
H          4.05200        0.07800        1.55700
H          2.69700       -2.14900       -0.50300
H          5.54600        0.83500       -3.40700
H          4.63900        2.26000       -2.92900
H          3.80300        0.86900       -3.65100
H          6.56900        0.54300       -1.22900
H          5.66100        0.44600        0.26600
H          5.77800        1.98500       -0.59500
H          2.40100        2.54800       -1.92800
