29
2154-68-9.pdb
C          1.08000        0.04200        0.03700
C          2.62400        0.05300       -0.04800
C          2.94900        0.16500       -1.55400
C          3.21900       -1.23300        0.53200
C          4.50700       -0.83000        1.26900
C          5.68900       -1.75700        0.96000
O          5.39200       -2.96500        0.73200
O          6.83600       -1.23100        1.01900
C          4.63900        0.69600        1.09500
C          5.15000        1.36200        2.40100
C          5.60700        1.17900       -0.00700
N          3.24200        1.16300        0.74200
O          2.51300        1.16500        2.01300
H          0.66100       -0.76900       -0.57100
H          0.66000        0.98500       -0.32900
H          0.71600       -0.11800        1.05700
H          2.37300       -0.57100       -2.12900
H          3.99100       -0.04200       -1.79500
H          2.69200        1.15600       -1.94300
H          3.38200       -1.98300       -0.25200
H          2.53400       -1.68700        1.26100
H          4.31100       -1.03000        2.33400
H          6.17500        1.04600        2.62500
H          4.54600        1.09900        3.27600
H          5.14800        2.45400        2.31300
H          6.64300        1.21100        0.35200
H          5.36700        2.20500       -0.31700
H          5.61700        0.54800       -0.89500
H          2.42800        2.12300        2.16500
