45
2156-97-0.pdb
C          0.90400       -0.04700       -0.06200
C          2.42300       -0.06200       -0.06000
C          2.95700       -1.26600        0.71000
C          4.48200       -1.28200        0.71500
C          5.00600       -2.48900        1.48400
C          6.52900       -2.50800        1.49200
C          7.04400       -3.72100        2.25800
C          8.56300       -3.74000        2.26700
C          9.09700       -4.94500        3.03900
C         10.62300       -4.97000        3.05900
C         11.20200       -3.73000        3.73200
C         12.72100       -3.75800        3.72500
O         13.23500       -2.56900        4.34200
C         13.24500       -1.49200        3.52300
O         12.87100       -1.45800        2.35800
C         13.77400       -0.32900        4.25400
C         13.87500        0.85400        3.63400
H          0.53400        0.82000       -0.61600
H          0.51300        0.00700        0.95900
H          0.50600       -0.95100       -0.53500
H          2.79500        0.86400        0.39300
H          2.78800       -0.08800       -1.09300
H          2.58100       -2.19200        0.25500
H          2.58600       -1.24000        1.74200
H          4.86100       -0.36000        1.17200
H          4.85600       -1.31000       -0.31600
H          4.62900       -3.41200        1.02600
H          4.63200       -2.46400        2.51500
H          6.90900       -1.58700        1.95300
H          6.90700       -2.53300        0.46200
H          6.66800       -4.64200        1.79800
H          6.67200       -3.69300        3.29000
H          8.90900       -2.80700        2.72300
H          8.95000       -3.76000        1.24000
H          8.72900       -5.86900        2.57900
H          8.71800       -4.92700        4.06900
H         10.99900       -5.04600        2.03100
H         10.96300       -5.86700        3.59000
H         10.82800       -3.63700        4.75900
H         10.87500       -2.82300        3.21500
H         13.10900       -3.85200        2.70300
H         13.08200       -4.62200        4.29000
H         14.07400       -0.47100        5.28400
H         13.56900        0.98000        2.59800
H         14.26700        1.72200        4.15100
