24
2157-52-0.pdb
O          1.03500        0.06000        0.09300
N          2.42600        0.12800        0.02600
C          2.99800       -0.35600        1.08300
C          4.47400       -0.39900        1.22900
C          5.45800        0.03500        0.36000
C          6.78600       -0.14100        0.75300
C          7.09700       -0.73800        1.98900
C          6.08400       -1.16800        2.85400
C          4.76600       -0.99400        2.46600
C          3.52900       -1.33100        3.13400
C          3.31800       -1.92800        4.36800
C          2.00200       -2.14300        4.78800
C          0.91900       -1.76200        3.98000
C          1.13100       -1.16100        2.73700
C          2.43700       -0.95400        2.32700
H          0.76700        0.43200       -0.76800
H          5.20400        0.49300       -0.59000
H          7.59200        0.18600        0.09800
H          8.13800       -0.86700        2.27500
H          6.33600       -1.62700        3.80500
H          4.14800       -2.22500        5.00000
H          1.81400       -2.61100        5.75200
H         -0.09800       -1.93700        4.32600
H          0.28600       -0.87100        2.12400
