26
216144-29-5.pdb
C          0.79200        0.01300        0.26400
C          2.30200        0.18600        0.23800
O          2.89200       -1.00000        0.75500
C          4.32400       -0.98900        0.72100
O          4.84100        0.07700        1.53400
C          6.26000        0.20900        1.44300
C          6.70900        1.36500        2.31500
C          4.80900       -2.32100        1.20300
C          5.60800       -3.22600        0.53300
O          5.88100       -4.30200        1.31600
C          5.24400       -4.09900        2.49900
C          4.57200       -2.90500        2.48300
H          0.28500        0.94900        0.01500
H          0.45300       -0.32300        1.25000
H          0.48000       -0.75200       -0.45600
H          2.57900        1.04200        0.86100
H          2.63600        0.36200       -0.79000
H          4.63800       -0.83100       -0.31900
H          6.55100        0.39000        0.40200
H          6.75500       -0.70100        1.79900
H          6.19800        2.29000        2.02900
H          7.78900        1.51700        2.23300
H          6.46500        1.17200        3.36500
H          6.06000       -3.24400       -0.44900
H          5.36900       -4.88000        3.23800
H          3.98600       -2.48200        3.28700
