13
2164-61-6.pdb
O          2.99200       -1.07600       -0.41200
C          2.46400        0.08500        0.04400
O          1.49000        0.14100        0.77700
C          3.20000        1.28100       -0.43400
C          2.81600        2.55600       -0.04800
C          3.56100        3.63000       -0.51700
C          4.64000        3.36300       -1.34100
N          4.98700        2.10800       -1.70600
N          4.26000        1.05000       -1.24800
H          3.78200       -0.92000       -0.97500
H          1.96200        2.70700        0.60400
H          3.31000        4.64700       -0.24300
H          5.26600        4.15600       -1.73600
