14
2164-83-2.pdb
O         -2.41300       -0.93800       -0.00200
C         -1.14900       -0.37400       -0.00200
C          0.00900       -1.07200       -0.00400
C          1.28000       -0.32100       -0.00800
O          2.40500       -0.80400       -0.00300
N          1.13900        1.04300       -0.01800
C         -0.07900        1.64700       -0.00900
N         -1.19200        1.00300       -0.00000
N          0.00200       -2.51500       -0.00500
O          1.07800       -3.12000       -0.00600
O         -1.10100       -3.08800       -0.00500
H         -2.35300       -1.91500       -0.00800
H          1.99200        1.58600       -0.02200
H         -0.04200        2.74800       -0.00900
