29
21662-09-9.pdb
C          0.96500       -1.21500        0.83900
C          2.48500       -1.22500        0.85900
C          3.03200        0.03900        1.52300
C          4.53400        0.03700        1.55300
C          5.24500        0.08900        2.68900
C          6.68600        0.08900        2.71000
C          7.39900        0.14400        3.84500
C          8.89900        0.14700        3.87300
C          9.44500       -1.04700        4.65100
C         10.96700       -1.03900        4.66700
O         11.45200       -2.16000        5.39300
H          0.58500       -2.12300        0.36200
H          0.58700       -0.35200        0.28000
H          0.56100       -1.16900        1.85500
H          2.85900       -1.30400       -0.16900
H          2.83300       -2.11500        1.39700
H          2.62700        0.12200        2.53900
H          2.69600        0.92500        0.97200
H          5.03800        0.00000        0.59000
H          4.72900        0.13200        3.64600
H          7.20000        0.04200        1.75100
H          6.89200        0.19900        4.80600
H          9.23600        1.08100        4.34000
H          9.30400        0.13500        2.85300
H          9.09100       -1.98900        4.21200
H          9.06800       -1.04000        5.68300
H         11.35500       -0.12800        5.13500
H         11.36600       -1.09800        3.65000
H         11.10800       -2.09400        6.30000
