24
21703-52-6.pdb
C         -1.81100        2.32400        0.00200
C         -1.35800        0.89000        0.01300
C         -2.32700       -0.12100        0.02800
C         -1.94200       -1.45200        0.02200
N         -2.85700       -2.51200        0.04600
N         -4.24800       -2.41600        0.10700
N         -0.64000       -1.80700        0.00500
C          0.30700       -0.84900       -0.00100
C          1.64600       -1.23100       -0.00500
C          2.68500       -0.29500       -0.00300
C          2.39200        1.05900        0.00500
C          1.06100        1.47100        0.00800
C          0.00500        0.52800        0.00600
H         -2.90400        2.40100       -0.01200
H         -1.43800        2.83700       -0.89100
H         -1.45700        2.84000        0.90000
H         -3.37400        0.15300        0.02900
H         -2.39500       -3.41500       -0.04800
H         -4.58500       -1.46000        0.03000
H         -4.58500       -2.75500        1.01200
H          1.88600       -2.29200       -0.00900
H          3.71800       -0.63400       -0.00500
H          3.19200        1.79700        0.01100
H          0.85300        2.53700        0.01600
