15
21725-69-9.pdb
O          0.89000        0.01800       -0.00100
C          2.10400        0.03500        0.00000
N          2.94000        1.11900        0.00300
O          4.31200        0.73800        0.00100
C          4.26400       -0.63100       -0.00100
C          5.34900       -1.48100       -0.00200
C          5.09400       -2.85800       -0.00400
C          3.77400       -3.35200       -0.00400
C          2.68600       -2.47500       -0.00300
C          2.97200       -1.12400       -0.00100
H          2.67500        2.09200       -0.00100
H          6.36300       -1.09700       -0.00200
H          5.92700       -3.55900       -0.00500
H          3.60100       -4.42600       -0.00600
H          1.66200       -2.83100       -0.00300
