21
21744-84-3.pdb
C          1.17700        0.06500       -0.22900
N          2.58700        0.00600        0.10900
C          3.20900       -1.23300        0.20100
O          2.67400       -2.29900       -0.10300
C          4.59100       -1.19500        0.84200
O          5.41300       -0.06600        0.62600
C          4.71500        1.10800        0.58200
C          5.48500        2.26500        0.75000
C          4.88900        3.52100        0.68100
C          3.52200        3.62200        0.43200
C          2.75100        2.46600        0.26000
C          3.33800        1.19400        0.33000
H          0.76000       -0.93100       -0.40300
H          1.03300        0.66000       -1.13500
H          0.63100        0.51000        0.61100
H          5.14600       -2.06700        0.47800
H          4.45300       -1.32600        1.92300
H          6.55100        2.18000        0.93200
H          5.48900        4.41800        0.81100
H          3.05500        4.60100        0.36300
H          1.69300        2.59500        0.05400
