29
2177-63-1.pdb
N          0.96300        0.13400        0.08700
C          1.86100        1.31000       -0.14500
C          3.04000        1.01800       -1.07400
C          2.55300        0.59500       -2.43400
O          1.83500       -0.38900       -2.59500
O          2.97400        1.43700       -3.40300
C          2.48300        1.17500       -4.72700
C          1.68300        2.35600       -5.21600
C          2.05300        3.03400       -6.38500
C          1.29400        4.11100       -6.85100
C          0.15900        4.52000       -6.15400
C         -0.22100        3.85200       -4.99300
C          0.53200        2.77300       -4.52900
C          1.02700        2.47500       -0.69900
O         -0.28900        2.15400       -0.77000
O          1.47700        3.55500       -1.04400
H          1.44500       -0.51100        0.72200
H          0.90800       -0.40800       -0.79200
H          2.22800        1.63200        0.83700
H          3.67100        0.21700       -0.67500
H          3.67500        1.90600       -1.17300
H          1.86800        0.27100       -4.79900
H          3.36100        1.01700       -5.36200
H          2.93600        2.73200       -6.94200
H          1.59100        4.63200       -7.75700
H         -0.42800        5.36100       -6.51300
H         -1.10100        4.17200       -4.44100
H          0.21400        2.26400       -3.62200
H         -0.36800        1.24300       -0.38700
