43
21829-25-4.pdb
C          1.26800       -2.38700        0.30200
O          2.68800       -2.21800        0.29300
C          3.11900       -1.09500        0.91800
O          2.38600       -0.28500        1.46300
C          4.60600       -1.01600        0.87600
C          5.26100        0.16400        1.02200
C          4.65100        1.54400        1.11200
N          6.64600        0.16600        1.11300
C          7.41500       -0.95900        1.36000
C          6.86300       -2.19400        1.23800
C          5.40000       -2.33900        0.75100
C          5.39400       -2.85600       -0.70500
C          6.03800       -2.06900       -1.68900
C          6.13300       -2.47900       -3.02200
C          5.58700       -3.69300       -3.41800
C          4.91200       -4.48000       -2.48900
C          4.80100       -4.05900       -1.14900
N          3.97200       -4.91000       -0.29400
O          4.44000       -5.31100        0.77500
O          2.85200       -5.21700       -0.73100
C          7.66700       -3.40700        1.55900
O          8.82700       -3.40600        1.95300
O          6.94200       -4.53000        1.36700
C          7.62900       -5.74300        1.68000
C          8.85000       -0.69300        1.74800
H          1.02200       -3.26400       -0.30200
H          0.77100       -1.51900       -0.14200
H          0.91500       -2.55900        1.32400
H          3.56500        1.58200        1.05800
H          5.02500        2.16300        0.28800
H          4.95200        2.02200        2.05200
H          7.08300        1.06500        1.30800
H          4.91100       -3.04300        1.43200
H          6.48300       -1.11000       -1.42500
H          6.64000       -1.84500       -3.74600
H          5.67200       -4.01600       -4.45200
H          4.46300       -5.41600       -2.81700
H          6.94300       -6.57900        1.51700
H          7.93900       -5.75100        2.73000
H          8.49200       -5.87000        1.01900
H          9.08200        0.37800        1.71900
H          9.53900       -1.17800        1.05000
H          9.04800       -1.03200        2.76900
