27
2186-92-7.pdb
C          0.89000        0.61800        0.78100
O          2.30400        0.57200        0.86600
C          2.82700       -0.76100        0.85600
O          2.39900       -1.50500       -0.28900
C          2.92000       -1.02200       -1.52000
C          4.34400       -0.73300        1.00600
C          5.04500        0.48200        1.05600
C          6.43700        0.51100        1.16900
C          7.16100       -0.67800        1.23100
O          8.52100       -0.77700        1.32100
C          9.24600        0.44600        1.35800
C          6.47300       -1.89600        1.19700
C          5.07700       -1.92600        1.08700
H          0.56800        1.61600        1.09200
H          0.41800       -0.12200        1.43300
H          0.57500        0.46900       -0.25600
H          2.43100       -1.27600        1.74100
H          2.28600       -1.40300       -2.32600
H          3.93100       -1.40700       -1.67900
H          2.91800        0.07100       -1.57000
H          4.51100        1.42800        1.00100
H          6.92000        1.48000        1.19800
H         10.31300        0.20700        1.38700
H          9.00600        1.01600        2.26300
H          9.06600        1.04500        0.45700
H          7.03000       -2.82700        1.24400
H          4.56600       -2.88500        1.04900
