43
2188-18-3.pdb
C          1.88100       -4.16600       -1.02900
C          2.37800       -2.72400       -1.17800
C          3.18900       -2.59700       -2.47800
C          1.14400       -1.80000       -1.26500
O          3.13400       -2.32400        0.00900
C          4.24500       -3.02900        0.36200
O          4.73100       -3.97000       -0.23200
N          4.82500       -2.49400        1.50200
C          6.27400       -2.73200        1.68600
C          6.94100       -1.55700        2.43300
C          8.45100       -1.72900        2.66200
C          9.24800       -1.88300        1.36900
N         10.66200       -2.03700        1.71200
C         11.42000       -2.75800        0.94500
N         11.00700       -3.35000       -0.20700
N         12.70500       -2.91600        1.34700
N         13.66400       -3.60800        0.71900
O         13.43000       -4.15500       -0.35900
O         14.75100       -3.58000        1.30400
C          6.59300       -4.06300        2.40900
O          5.65100       -4.43200        3.31800
O          7.64800       -4.68100        2.30000
H          1.28600       -4.47400       -1.89400
H          1.28300       -4.28100       -0.12300
H          2.71500       -4.86500       -0.94900
H          2.63100       -3.01000       -3.32900
H          4.13500       -3.14200       -2.41800
H          3.43700       -1.55700       -2.71800
H          0.51500       -2.04400       -2.13100
H          1.42800       -0.74300       -1.34200
H          0.52300       -1.88800       -0.36500
H          4.41100       -1.61600        1.78200
H          6.70400       -2.81600        0.68300
H          6.46200       -1.42100        3.41100
H          6.76800       -0.62300        1.87800
H          8.63100       -2.60500        3.29400
H          8.83600       -0.87500        3.23100
H          9.12300       -0.99600        0.74000
H          8.86300       -2.74900        0.82900
H         10.15700       -3.01500       -0.63900
H         11.72200       -3.60500       -0.88100
H         12.92800       -2.44300        2.20400
H          4.86400       -3.86300        3.25700
