17
21901-34-8.pdb
C          0.92900       -0.04300        0.02100
C          2.41700        0.04900       -0.08200
C          3.09900        1.20900       -0.15000
C          4.54300        1.21500       -0.28300
C          5.22300        0.05700       -0.31300
N          4.54400       -1.13800       -0.22200
C          3.17500       -1.24500       -0.11500
O          2.61300       -2.33300       -0.05300
N          5.29700        2.46200       -0.41700
O          6.52500        2.39500       -0.56800
O          4.65100        3.51900       -0.37700
H          0.46500        0.94600        0.09000
H          0.63500       -0.61100        0.91000
H          0.51800       -0.54200       -0.86300
H          2.57800        2.16100       -0.11900
H          6.30200       -0.01900       -0.41400
H          5.05000       -2.01800       -0.24700
