19
21901-40-6.pdb
C         -2.60400        1.07500        0.02000
C         -1.32000        0.28200        0.00800
C         -0.10600        0.99200       -0.01600
C          1.12400        0.32700        0.00400
N          2.31800        0.99500       -0.10500
N          1.11800       -1.01200        0.01300
C         -0.00700       -1.74800        0.01800
C         -1.25300       -1.12400        0.01800
N         -2.43400       -1.99500        0.02100
O         -3.54200       -1.44800        0.01200
O         -2.25100       -3.21500        0.03500
H         -2.40900        2.15200        0.00900
H         -3.17300        0.86400        0.93100
H         -3.20500        0.85200       -0.86700
H         -0.11700        2.08200       -0.03900
H          2.33500        1.98900        0.11500
H          3.22100        0.54400       -0.01100
H          2.01900       -1.48400       -0.01300
H          0.14200       -2.82200        0.01300
