17
21901-18-8.pdb
C          0.89200        0.09800        0.05900
C          2.38400       -0.07500        0.12200
C          3.08700       -1.22500        0.20800
C          4.56900       -1.24600        0.26500
O          5.25000       -2.26300        0.25400
N          5.16200        0.00300        0.30200
C          4.46900        1.18200        0.22500
C          3.13400        1.18000        0.11900
N          2.41700       -2.49000        0.25800
O          1.70000       -2.79500       -0.70800
O          2.56100       -3.16800        1.28300
H          0.33300       -0.83400        0.17800
H          0.60500        0.53900       -0.90200
H          0.55500        0.77200        0.85500
H          6.17500        0.00700        0.35400
H          5.05200        2.09800        0.24100
H          2.58900        2.11800        0.04300
