21
21983-72-2.pdb
C          0.95500       -0.12200       -0.37500
O          2.35500        0.00500       -0.16700
C          2.75100        0.95900        0.82600
C          2.32800        2.38000        0.42000
O          2.12900        0.68800        2.08100
C          2.63500       -0.46600        2.73800
C          4.31500        1.01500        0.88300
C          5.09400        0.63200       -0.35200
O          4.93200        1.39700        1.88700
H          0.80400       -0.81400       -1.21000
H          0.49200        0.82700       -0.65400
H          0.46600       -0.54200        0.50700
H          1.24000        2.50800        0.46400
H          2.65300        2.62000       -0.59700
H          2.74600        3.12500        1.10700
H          1.95500       -0.72000        3.55500
H          3.61500       -0.26400        3.18000
H          2.69800       -1.32400        2.06100
H          4.44600        0.33400       -1.17800
H          5.75000       -0.20800       -0.10700
H          5.68800        1.48900       -0.67900
