28
2199-46-4.pdb
C          1.38800        0.66600       -0.87000
C          2.34300        0.50600        0.30300
O          3.19600        1.66000        0.31200
C          4.29800        1.53300       -0.47900
O          4.74300        0.46300       -0.88000
C          4.77200        2.83800       -0.87600
N          4.26000        4.03200       -0.42900
C          4.92000        5.08400       -1.01300
C          4.60200        6.49900       -0.68300
C          5.85600        4.56000       -1.89000
C          6.78900        5.32300       -2.76300
C          5.76600        3.13600       -1.80200
C          6.56600        2.13700       -2.56500
H          0.66900       -0.15500       -0.91600
H          1.94100        0.70400       -1.81600
H          0.84700        1.61500       -0.78900
H          2.90100       -0.43400        0.23800
H          1.78700        0.48900        1.24500
H          3.50000        4.10700        0.23500
H          3.81900        6.57500        0.07800
H          4.26200        7.03300       -1.57600
H          5.49500        7.00200       -0.30100
H          6.67600        6.40400       -2.63600
H          6.60300        5.08600       -3.81600
H          7.82500        5.06100       -2.52600
H          7.26900        2.61800       -3.25200
H          5.90700        1.49300       -3.15800
H          7.14200        1.51000       -1.87800
