27
2199-59-9.pdb
C          1.52700        1.42000       -0.03600
C          2.38300        0.21600        0.30600
O          3.23200        0.57000        1.40000
C          4.35700        1.25400        1.05000
O          4.89200        1.16700       -0.04700
C          4.82200        2.17700        2.09500
C          4.26700        2.38400        3.35500
C          3.10700        1.77800        4.06300
N          5.03500        3.32100        4.00100
C          6.07800        3.72800        3.20600
C          7.05200        4.68500        3.67500
O          7.02200        5.19400        4.78700
C          5.96300        3.06100        1.99700
C          6.84900        3.19700        0.80200
H          0.83100        1.18200       -0.84400
H          2.15500        2.25900       -0.35000
H          0.96000        1.75700        0.83900
H          2.96700       -0.10100       -0.56500
H          1.74600       -0.61800        0.61700
H          2.56700        1.04800        3.46100
H          2.38800        2.54900        4.35700
H          3.44900        1.25900        4.96300
H          4.88700        3.65700        4.94300
H          7.85700        4.95000        2.96900
H          7.66900        3.89900        0.97600
H          6.27300        3.56800       -0.05200
H          7.29200        2.23200        0.53500
