20
22013-33-8.pdb
N          1.03700       -0.04800       -0.12600
C          2.42600       -0.03100        0.04600
C          3.14600       -1.23100        0.05500
C          4.54400       -1.22700        0.08200
C          5.23300       -0.01900        0.05200
O          6.60200       -0.08700        0.04100
C          7.17700        1.15800       -0.37400
C          6.51900        2.31600        0.35700
O          5.13500        2.41500        0.00300
C          4.52500        1.18600        0.02100
C          3.13000        1.17600       -0.01900
H          0.58600       -0.88100        0.24000
H          0.57600        0.80500        0.17600
H          2.62300       -2.18300        0.03400
H          5.09100       -2.16500        0.09500
H          7.06200        1.25200       -1.46100
H          8.24700        1.12200       -0.14600
H          7.00000        3.26000        0.08200
H          6.59400        2.19800        1.44600
H          2.59700        2.11900       -0.09200
