44
22014-01-3.pdb
C          1.92800       -1.36000        0.90100
C          2.45100       -0.14500        0.08400
C          1.28700        0.87200        0.06600
C          3.63000        0.43500        0.89800
C          2.91400       -0.52400       -1.35200
C          2.84600       -1.86300       -1.78200
C          3.27000       -2.25900       -3.05000
C          3.19000       -3.68600       -3.42100
C          2.93700       -4.11700       -4.66900
C          2.88300       -5.52500       -5.10900
O          2.56500       -6.41100       -4.15000
O          3.08900       -5.84000       -6.27100
C          3.81400       -1.29700       -3.90600
C          3.90500        0.07400       -3.57100
C          3.44000        0.42700       -2.27300
O          3.47000        1.72100       -1.83000
C          4.46100        1.06600       -4.63300
C          4.86300        0.37900       -5.97400
C          3.38600        2.10800       -5.01500
C          5.74900        1.77400       -4.15400
H          1.59800       -1.05700        1.90200
H          2.70600       -2.12000        1.03900
H          1.06600       -1.83300        0.41400
H          1.00300        1.15200        1.08900
H          0.39800        0.44700       -0.41500
H          1.52900        1.80100       -0.45300
H          3.31700        0.67500        1.92200
H          4.03300        1.35700        0.47200
H          4.45400       -0.28500        0.96500
H          2.45100       -2.63500       -1.12900
H          3.36400       -4.37800       -2.60300
H          2.80700       -3.42200       -5.49400
H          2.26100       -6.01300       -3.31600
H          4.17700       -1.65000       -4.86500
H          3.93100        2.29000       -2.45500
H          4.00700       -0.11200       -6.45200
H          5.65300       -0.36800       -5.82300
H          5.25400        1.10600       -6.69500
H          2.49200        1.61800       -5.41900
H          3.76200        2.79400       -5.78500
H          3.06100        2.72800       -4.17700
H          6.52300        1.04500       -3.88800
H          5.60600        2.42600       -3.29100
H          6.15800        2.41100       -4.94900
