25
220498-08-8.pdb
C          5.12700       -0.01100        2.94700
O          4.64900       -0.11200        1.60900
C          5.15200       -1.15900        0.88900
O          6.10000       -1.85100        1.25400
C          4.53500       -1.18200       -0.51400
C          3.00600       -1.04700       -0.51000
C          2.24000       -2.20900        0.10500
O          2.59200       -2.53100        1.27100
O          1.34000       -2.69900       -0.63400
C          5.12200       -2.32200       -1.39700
C          4.78500       -3.74600       -0.94500
C          4.73800       -2.15200       -2.87100
H          4.98700        1.02200        3.27700
H          6.19300       -0.24600        3.03200
H          4.53800       -0.66600        3.59500
H          4.91200       -0.25100       -0.96600
H          2.71000       -0.15800        0.06300
H          2.64500       -0.86400       -1.52900
H          6.21700       -2.23600       -1.34900
H          3.72200       -3.97400       -1.04700
H          5.08200       -3.92300        0.09200
H          5.32100       -4.47500       -1.56400
H          3.65900       -2.24300       -3.02600
H          5.22200       -2.91800       -3.48800
H          5.05900       -1.17500       -3.24700
