15
22047-25-2.pdb
C          3.01000       -0.23600       -1.32400
C          2.55700       -0.06300        0.10200
O          1.64400       -0.72900        0.58400
C          3.25900        0.95600        0.91700
C          2.91000        1.14500        2.24700
N          3.52200        2.06800        3.03300
C          4.49400        2.79000        2.42900
C          4.84300        2.60000        1.10100
N          4.23800        1.68100        0.31300
H          2.42700       -1.03300       -1.79500
H          4.06500       -0.52400       -1.35100
H          2.84800        0.68700       -1.88500
H          2.12900        0.56100        2.72400
H          4.98900        3.53200        3.04500
H          5.62500        3.18700        0.63300
