27
22041-19-6.pdb
C          1.48600        0.11900       -0.22400
C          2.68500        0.91400       -0.70600
O          3.32500        1.57300        0.40200
C          4.17800        0.80500        1.12500
O          4.44400       -0.37000        0.90400
C          4.84800        1.61700        2.22500
N          6.38400        1.63300        2.19400
C          6.97000        2.28200        0.96600
C          7.21500        1.13300        0.01500
C          7.58200       -0.03900        0.90700
C          7.02200        0.26200        2.29000
H          0.97400       -0.35900       -1.06300
H          0.77900        0.77300        0.29800
H          1.78600       -0.65600        0.48800
H          2.36000        1.69300       -1.40200
H          3.39900        0.27800       -1.24400
H          4.55600        1.20400        3.19600
H          4.53100        2.66500        2.19100
H          6.67700        2.17800        3.01400
H          7.90900        2.74900        1.28000
H          6.28500        3.04400        0.58400
H          8.00500        1.36200       -0.70700
H          6.31300        0.90800       -0.56300
H          8.67000       -0.15600        0.96300
H          7.18300       -0.97900        0.51000
H          7.82900        0.34800        3.02600
H          6.29100       -0.46600        2.65200
