24
220497-88-1.pdb
N          2.82000        0.10100       -1.43700
C          2.37600       -0.03100       -0.01700
C          2.93700       -1.32900        0.57100
C          4.19000       -0.93800        1.38600
C          5.43500       -1.70700        0.95800
O          5.19100       -3.09400        1.11300
C          4.36400        0.56800        1.19600
O          4.92000        1.16400        2.34700
C          2.95800        1.07800        0.87200
O          2.18200        1.24800        2.05700
H          2.42700       -0.66200       -2.00900
H          3.83800        0.07100       -1.56700
H          2.47600        0.97900       -1.85500
H          1.28200       -0.03600       -0.03300
H          3.13300       -2.08600       -0.19600
H          2.19900       -1.75700        1.25800
H          3.99900       -1.17400        2.44100
H          6.31600       -1.42100        1.54200
H          5.65800       -1.52800       -0.09900
H          5.42700       -3.33600        2.03000
H          5.03300        0.77500        0.35100
H          4.20200        1.51600        2.91000
H          2.98900        2.05000        0.37000
H          2.19400        0.44600        2.61200
