20
22053-74-3.pdb
C          0.91400       -0.00700        0.04400
C          2.40700        0.13400        0.04500
C          3.11400        1.32700        0.04600
S          4.80200        1.07800        0.04600
C          4.64300       -0.62700        0.04500
C          5.69000       -1.57000        0.04400
C          5.37900       -2.93000        0.04200
C          4.05600       -3.34600        0.04200
C          3.02100       -2.40500        0.04300
C          3.30100       -1.01300        0.04400
C          2.64500        2.69900        0.04600
O          1.47100        3.06100        0.04500
H          0.39000        0.95000        0.04300
H          0.58800       -0.55800        0.93300
H          0.58900       -0.55900       -0.84400
H          6.72700       -1.24500        0.04400
H          6.18100       -3.66500        0.04100
H          3.82100       -4.40800        0.04100
H          1.99000       -2.75300        0.04200
H          3.43300        3.47400        0.04700
