22
22068-49-1.pdb
O          2.28200        0.03300        0.02100
C          0.91900       -0.00400        0.00600
C          0.22700       -1.21000       -0.00700
C         -1.17100       -1.20100       -0.02300
C         -1.88800        0.01100       -0.02400
C         -1.15900        1.21400       -0.01200
C          0.23600        1.20500        0.00400
C         -3.40300        0.04900       -0.03600
S         -4.12800       -0.78000        1.41900
C         -5.50900       -1.55500        0.54900
C         -5.00000       -2.02200       -0.80000
S         -4.10400       -0.65000       -1.57000
H          2.61500       -0.87900        0.00700
H          0.75100       -2.16000       -0.00200
H         -1.69900       -2.15100       -0.03200
H         -1.67500        2.17300       -0.01400
H          0.79000        2.14000        0.01400
H         -3.74100        1.09000        0.00500
H         -6.32200       -0.82900        0.44200
H         -5.88900       -2.39700        1.13400
H         -5.83000       -2.32700       -1.44400
H         -4.32600       -2.87900       -0.69900
