24
22084-89-5.pdb
C          2.47500        0.26900       -0.04300
C          0.97800        0.11800       -0.03800
C          0.18900        1.28100       -0.04200
C         -1.20300        1.20900       -0.02700
C         -1.82800       -0.03000        0.01100
C         -1.06200       -1.19500        0.02800
C          0.34500       -1.14400       -0.01900
C          1.12400       -2.44600       -0.02600
C          0.74200       -3.41500       -1.14500
C          1.24900       -2.99600       -2.50200
O          0.62700       -1.92100       -3.02900
O          2.12100       -3.60200       -3.10800
H          2.77300        1.32300       -0.03400
H          2.90300       -0.18500       -0.94200
H          2.90600       -0.19700        0.85000
H          0.66000        2.26300       -0.05600
H         -1.79400        2.12000       -0.02900
H         -2.91400       -0.09000        0.04100
H         -1.58100       -2.15100        0.08500
H          0.94600       -2.93300        0.94100
H          2.20200       -2.26400       -0.07800
H         -0.33400       -3.60500       -1.21100
H          1.20500       -4.38600       -0.92700
H         -0.03400       -1.50400       -2.44200
