19
2210-25-5.pdb
C          1.07400        0.01900        0.13800
C          2.59700       -0.01600        0.05800
C          3.05500       -0.30400       -1.37000
N          3.15800        1.23700        0.54400
C          4.41300        1.28900        1.10000
O          5.13600        0.31400        1.26600
C          4.82200        2.66100        1.49700
C          6.00900        2.86600        2.08400
H          0.64600       -0.93900       -0.17500
H          0.65900        0.80500       -0.50300
H          0.74500        0.21900        1.16300
H          2.95900       -0.82300        0.70600
H          2.72300        0.47900       -2.06000
H          2.65100       -1.26000       -1.72000
H          4.14700       -0.35800       -1.43100
H          2.65800        2.09500        0.35400
H          4.14500        3.48500        1.31300
H          6.69300        2.04400        2.27800
H          6.32100        3.85900        2.38700
