21
2210-28-8.pdb
C          1.15000        0.94100       -2.01400
C          2.66700        0.93200       -1.96200
C          3.19300        1.32300       -0.58400
O          4.63100        1.32600       -0.58300
C          5.19900        2.45400       -1.07500
O          4.58300        3.42400       -1.49700
C          6.68400        2.37200       -1.05400
C          7.40800        1.18500       -0.49900
C          7.35800        3.42000       -1.56100
H          0.80500        0.67000       -3.01700
H          0.75700        1.93500       -1.77800
H          0.72700        0.22500       -1.30300
H          3.05800        1.61400       -2.72500
H          3.04600       -0.06200       -2.22800
H          2.87100        0.58900        0.16300
H          2.80200        2.29500       -0.25800
H          6.74500        0.40000       -0.12900
H          8.04700        1.49100        0.33700
H          8.04300        0.73600       -1.27000
H          6.84400        4.28700       -1.96900
H          8.44300        3.44000       -1.58100
