25
2210-74-4.pdb
C          1.02100       -0.53800        0.18200
O          2.37200       -0.10400        0.07700
C          3.06000        0.05100        1.25200
C          2.73300       -0.64900        2.42400
C          3.51100       -0.52200        3.57500
C          4.63600        0.29600        3.57000
C          4.97300        0.99300        2.41200
C          4.18700        0.89300        1.25700
O          4.66000        1.64100        0.20800
C          3.68000        2.18000       -0.68100
C          4.20900        3.46200       -1.24500
C          4.46400        4.65600       -0.36300
O          3.29600        4.56800       -1.19100
H          0.57000       -0.46500       -0.81200
H          0.44900        0.10600        0.85800
H          0.96300       -1.58700        0.49000
H          1.88800       -1.32900        2.46300
H          3.24800       -1.07600        4.47300
H          5.25100        0.38700        4.46100
H          5.85500        1.62900        2.40600
H          2.72800        2.37500       -0.16900
H          3.52100        1.47500       -1.50300
H          4.81000        3.33100       -2.13400
H          5.23100        5.36100       -0.66000
H          4.34400        4.54100        0.70700
