29
2215-89-6.pdb
O          3.39500        1.25300        0.43000
C          2.61100        0.24000        0.01200
O          1.41800        0.17200        0.25800
C          3.31700       -0.76400       -0.82400
C          2.58700       -1.42800       -1.81600
C          3.20400       -2.39400       -2.61600
C          4.56700       -2.66300       -2.46300
O          5.27000       -3.58100       -3.20900
C          4.98100       -3.76100       -4.54300
C          4.48300       -2.76800       -5.38900
C          4.19200       -3.06600       -6.72200
C          4.44900       -4.34300       -7.23500
C          5.03900       -5.31100       -6.41300
C          5.29300       -5.01900       -5.06700
C          4.12600       -4.59200       -8.66400
O          3.82100       -5.87600       -8.94800
O          4.09400       -3.70300       -9.49600
C          5.28300       -2.03600       -1.43800
C          4.66100       -1.09500       -0.61200
H          4.27600        1.29600        0.01500
H          1.53200       -1.20200       -1.96200
H          2.60700       -2.92000       -3.35600
H          4.30800       -1.75700       -5.03300
H          3.76900       -2.29400       -7.36400
H          5.33300       -6.28300       -6.79900
H          5.74500       -5.77300       -4.42600
H          3.69200       -6.45600       -8.17600
H          6.32800       -2.29300       -1.27700
H          5.23000       -0.65800        0.20400
