28
22150-76-1.pdb
C          2.83000        0.94300        1.51900
C          2.47300        0.20500        0.23100
O          1.04200        0.11700        0.16900
C          2.99300        0.88900       -1.05400
O          2.49600        2.23900       -1.09400
C          4.50200        0.88000       -1.13400
C          5.19300       -0.21500       -1.65000
N          6.55000       -0.28700       -1.68400
C          7.21200        0.78100       -1.18000
N          8.59700        0.77500       -1.17300
C          9.26200        1.79800       -0.59400
N          8.72900        2.86100       -0.08200
C          7.35000        2.98700       -0.11200
O          6.78200        3.98500        0.32200
C          6.52300        1.87800       -0.67400
N          5.16100        1.96100       -0.64200
N         10.60600        1.62900       -0.56800
H          2.37700        0.44100        2.38100
H          2.43800        1.96500        1.51600
H          3.91100        0.98200        1.67700
H          2.85000       -0.82200        0.28900
H          0.72300        1.03400        0.05100
H          2.57200        0.39100       -1.93500
H          3.26300        2.81100       -0.87700
H          4.67400       -1.08000       -2.05300
H          9.04200       -0.08300       -1.45600
H         11.02100        1.24000       -1.40500
H         11.08200        2.48100       -0.28100
