25
2216-12-8.pdb
O          1.25400       -0.02300        0.04200
N          2.46500       -0.17800        0.26000
O          3.09000       -1.23700        0.11700
C          3.18400        0.96200        0.79000
C          2.73100        1.52100        1.99500
C          3.40500        2.61500        2.53500
C          4.48500        3.17000        1.85200
C          4.90100        2.62900        0.63300
C          4.29100        1.47800        0.11000
O          4.70800        0.87900       -1.06200
C          6.03700        0.99100       -1.41200
C          7.08000        0.81500       -0.49600
C          8.39500        1.07400       -0.88000
C          8.67400        1.43700       -2.19700
C          7.64300        1.52100       -3.13400
C          6.32200        1.29600       -2.74300
H          1.86900        1.10800        2.51300
H          3.08500        3.04400        3.48200
H          5.01200        4.02800        2.26600
H          5.72500        3.11200        0.11100
H          6.87300        0.52300        0.53000
H          9.19600        1.00300       -0.15000
H          9.69900        1.64700       -2.49400
H          7.86900        1.77700       -4.16600
H          5.51900        1.38000       -3.46900
