23
2216-94-6.pdb
C          1.98500        0.52200       -2.38000
C          2.33700        0.20900       -0.93600
O          3.07200        1.31400       -0.39400
C          4.41100        1.28000       -0.61200
O          5.05400        0.34600       -1.06600
C          5.03400        2.54100       -0.32100
C          5.55800        3.60500       -0.12500
C          6.19500        4.86200        0.10300
C          5.93900        5.56300        1.28200
C          6.59500        6.76800        1.53100
C          7.50500        7.27300        0.60100
C          7.74900        6.58100       -0.58600
C          7.09200        5.37500       -0.83700
H          1.31500       -0.23400       -2.79600
H          2.88800        0.56700       -2.99700
H          1.50500        1.50500       -2.45200
H          2.89000       -0.73300       -0.85200
H          1.42300        0.10500       -0.34400
H          5.23700        5.17300        2.01400
H          6.40600        7.30900        2.45400
H          8.02600        8.20600        0.80100
H          8.45500        6.97600       -1.31200
H          7.29100        4.83800       -1.76200
