26
2216-92-4.pdb
C          1.75800       -1.48900        0.57000
C          2.45800       -0.32200       -0.10000
O          3.21500       -0.84000       -1.20000
C          4.48500       -1.24400       -0.90500
O          5.07400       -1.03200        0.14900
C          5.00400       -2.12500       -2.03200
N          6.47000       -2.15600       -2.04400
C          7.11000       -3.05000       -2.90700
C          6.55800       -3.47300       -4.12300
C          7.27600       -4.29400       -4.99800
C          8.57300       -4.68900       -4.68000
C          9.15100       -4.25300       -3.49300
C          8.42900       -3.42900       -2.62500
H          1.13500       -1.15400        1.40200
H          2.48700       -2.21700        0.94300
H          1.13000       -2.02000       -0.15400
H          3.08300        0.23600        0.60600
H          1.72000        0.37600       -0.50800
H          4.62500       -1.73000       -2.98000
H          4.60100       -3.13000       -1.85400
H          6.85600       -2.16400       -1.09900
H          5.56200       -3.16200       -4.42700
H          6.82500       -4.61300       -5.93500
H          9.13400       -5.31800       -5.36500
H         10.16900       -4.54000       -3.24600
H          8.91100       -3.08400       -1.71400
