22
2216-69-5.pdb
C          1.07900        0.14800       -0.28300
O          2.45300        0.05900        0.07500
C          3.06000       -1.15700       -0.14400
C          2.64200       -2.05100       -1.13600
C          3.31100       -3.25800       -1.32300
C          4.40700       -3.57900       -0.52600
C          4.85800       -2.69400        0.46400
C          5.97000       -3.02200        1.25800
C          6.42800       -2.14900        2.24400
C          5.78000       -0.93700        2.45000
C          4.67300       -0.59800        1.66900
C          4.18600       -1.46300        0.66300
H          0.70100        1.10900        0.08000
H          0.49400       -0.64500        0.19500
H          0.94800        0.13700       -1.36900
H          1.80900       -1.82600       -1.79300
H          2.98200       -3.94800       -2.09700
H          4.91500       -4.52600       -0.69000
H          6.49100       -3.96500        1.11100
H          7.29000       -2.41600        2.84900
H          6.13200       -0.25300        3.21700
H          4.18100        0.35600        1.84800
