29
2217-02-9.pdb
C          0.95600        0.19400       -0.01900
C          2.48100       -0.05400        0.00200
C          2.68200       -1.57500       -0.06000
C          3.16500        0.72300       -1.17300
C          4.64600        0.32600       -1.32400
C          5.29700        0.92400       -0.06800
C          4.12100        1.65600        0.61600
C          4.56900        2.74600        1.57000
C          3.32600        2.14200       -0.60100
C          3.11600        0.64900        1.24400
O          3.71400       -0.22300        2.18400
H          0.70000        1.25700        0.03300
H          0.47200       -0.29600        0.83400
H          0.50800       -0.20700       -0.93500
H          3.73000       -1.87400        0.02200
H          2.29800       -1.97700       -1.00500
H          2.14600       -2.07300        0.75600
H          2.61400        0.67400       -2.11500
H          5.07400        0.79800       -2.21700
H          4.81900       -0.74700       -1.41900
H          6.08800        1.62400       -0.36300
H          5.76100        0.16000        0.56100
H          5.23700        3.45700        1.07200
H          5.10300        2.32500        2.42700
H          3.71200        3.31300        1.95000
H          3.90000        2.80700       -1.25700
H          2.38400        2.63200       -0.34200
H          2.34800        1.20700        1.79200
H          4.37400       -0.77600        1.73800
