24
2217-41-6.pdb
N          1.07600       -0.15600       -0.18900
C          2.46400       -0.09700        0.02100
C          3.19000       -1.29600       -0.02200
C          4.58200       -1.29800        0.01100
C          5.27400       -0.09200        0.02800
C          4.57900        1.12600        0.01000
C          5.38300        2.40500        0.00500
C          4.56600        3.63000       -0.39300
C          3.26300        3.65200        0.38800
C          2.40900        2.44200        0.01600
C          3.16400        1.12900        0.03000
H          0.65300       -1.02400        0.12300
H          0.56300        0.65500        0.13300
H          2.66700       -2.24700       -0.08600
H          5.12500       -2.23800       -0.00100
H          6.36200       -0.10300        0.03300
H          6.22800        2.31000       -0.68800
H          5.79500        2.55300        1.01100
H          4.35100        3.60700       -1.46900
H          5.14400        4.54100       -0.19900
H          2.70900        4.57400        0.18100
H          3.47900        3.64200        1.46500
H          1.99400        2.58700       -0.99000
H          1.57400        2.40200        0.72400
