34
2217-15-4.pdb
C          2.95200        1.59400        0.65100
C          4.37700        1.17500        0.30800
C          5.33100        2.35600        0.44000
O          4.80400        0.16100        1.24000
C          4.45100       -1.11800        0.93400
O          3.84500       -1.46900       -0.07100
C          4.90300       -2.08800        2.02300
O          4.46700       -3.43500        1.78600
C          6.41900       -2.05400        2.22300
O          6.77700       -2.95700        3.27900
C          7.13000       -2.46300        0.93800
O          7.39200       -3.62300        0.64400
O          7.40600       -1.37000        0.17300
C          8.14500       -1.63700       -1.04200
C          7.19100       -2.07500       -2.14300
C          8.85900       -0.34700       -1.42500
H          2.60400        2.39100       -0.00900
H          2.88600        1.94000        1.68900
H          2.26400        0.74700        0.56000
H          4.43100        0.80100       -0.72100
H          5.35800        2.73100        1.46900
H          5.04000        3.17600       -0.22400
H          6.35300        2.05100        0.18800
H          4.40400       -1.79100        2.95300
H          4.50400       -3.59300        0.82200
H          6.76900       -1.06000        2.52300
H          6.50000       -3.84500        2.96900
H          8.90400       -2.41200       -0.86300
H          6.40900       -1.32400       -2.30600
H          6.67900       -3.00500       -1.87300
H          7.72300       -2.24000       -3.08500
H          8.14400        0.46900       -1.56900
H          9.44100       -0.47100       -2.34300
H          9.53700       -0.03200       -0.62300
