21
2221-13-8.pdb
O          1.91200        0.47300       -1.18700
C          0.93100        0.12000       -0.54300
C          0.62600       -1.34600       -0.28800
N         -0.57000       -1.25100        0.48000
C         -0.93900        0.05800        0.70400
O         -1.95500        0.32400        1.32600
N         -0.02700        0.88900        0.08900
C         -0.07700        2.31200        0.09400
C          0.62800        3.07400       -0.85100
C          0.56400        4.47300       -0.85500
C         -0.19600        5.14100        0.09800
C         -0.89200        4.40900        1.05300
C         -0.83800        3.01100        1.04600
H          1.40900       -1.81300        0.31300
H          0.43300       -1.88300       -1.21800
H         -1.13400       -2.01700        0.82300
H          1.22100        2.60700       -1.63200
H          1.10600        5.03500       -1.61100
H         -0.24400        6.22600        0.09700
H         -1.48000        4.92300        1.81000
H         -1.38600        2.49200        1.82700
