23
22223-49-0.pdb
C          2.19600       -1.10300        0.05300
O          2.05200        0.32200        0.04400
C          2.97200        1.01200       -0.67500
O          3.88400        0.51000       -1.32200
C          2.69600        2.48500       -0.63800
C          1.57700        2.97500        0.06100
C          1.25900        4.32900        0.02600
C          2.06400        5.21200       -0.68700
C          3.21100        4.75900       -1.35900
C          4.08400        5.77100       -2.05100
C          3.52500        3.38000       -1.36500
N          4.76900        2.96400       -1.88600
H          2.12400       -1.44300        1.09000
H          3.14900       -1.45200       -0.35600
H          1.37500       -1.54600       -0.51800
H          0.94400        2.31000        0.64300
H          0.39200        4.69900        0.56700
H          1.80400        6.26900       -0.69900
H          3.66800        6.78200       -1.97400
H          4.17000        5.53700       -3.11700
H          5.07900        5.78800       -1.59600
H          5.11300        3.49700       -2.67500
H          4.81100        1.95100       -2.05100
