26
2222-33-5.pdb
O          1.06600       -1.39800        0.70400
C          1.08300       -0.91000        1.84600
C          0.01600       -1.37600        2.84000
C         -0.93900       -2.30300        2.38800
C         -2.01300       -2.70700        3.20000
C         -2.17100       -2.17500        4.47800
C         -1.21500       -1.30500        4.97600
C         -0.11900       -0.94400        4.18800
C          0.91100       -0.14300        4.82800
C          1.12500        0.99500        4.16300
C          2.29200        0.86700        3.30800
C          3.45500        1.56600        3.64800
C          4.47900        1.68100        2.72200
C          4.32400        1.10900        1.45900
C          3.21000        0.29900        1.17600
C          2.20200        0.10300        2.12700
H         -0.85800       -2.73100        1.38900
H         -2.73600       -3.42800        2.83000
H         -3.02400       -2.45100        5.09400
H         -1.32100       -0.90100        5.98200
H          1.73200       -0.73700        5.22900
H          0.30900        1.51900        3.65600
H          3.54400        2.04000        4.62400
H          5.37200        2.25000        2.97000
H          5.08200        1.28400        0.70000
H          3.14000       -0.16400        0.19300
