17
22288-78-4.pdb
C          0.96500       -0.70300        0.49500
O          2.39200       -0.73300        0.47500
C          2.93400       -1.10300       -0.72500
O          2.25900       -1.40900       -1.70600
C          4.38800       -1.09000       -0.68500
S          5.25500       -0.71500        0.75300
C          6.76600       -0.92300       -0.01500
C          6.62600       -1.26300       -1.34100
C          5.26200       -1.36200       -1.72200
N          4.88500       -1.68900       -2.97300
H          0.65100       -0.23900        1.43400
H          0.56700       -1.72200        0.45800
H          0.57200       -0.10200       -0.33200
H          7.68300       -0.78600        0.54100
H          7.46900       -1.43200       -1.99800
H          5.53600       -1.98600       -3.69300
H          3.90300       -1.85400       -3.20500
