19
22280-62-2.pdb
C          0.93200        0.15000        0.03500
C          2.41900       -0.00100       -0.05800
N          3.12600        1.15500       -0.10300
C          4.46000        1.22700       -0.22100
N          5.08000        2.45800       -0.21400
C          5.19400        0.04400       -0.23100
C          4.53300       -1.18200       -0.18700
C          3.13500       -1.21200       -0.11000
N          2.46500       -2.51900       -0.08600
O          1.23300       -2.53600       -0.03500
O          3.18300       -3.52400       -0.12400
H          0.64700        1.20600        0.10200
H          0.54300       -0.34100        0.93200
H          0.45000       -0.25500       -0.86000
H          2.63100        2.04100       -0.03400
H          4.54800        3.31900       -0.27400
H          5.94900        2.51600       -0.74500
H          6.28100        0.06700       -0.27800
H          5.12500       -2.09800       -0.21000
