23
22300-56-7.pdb
C          1.32000        0.25300       -0.11600
C          2.79400        0.13900       -0.03500
N          3.39100       -1.05800       -0.14900
N          4.70200       -0.74100        0.01100
N          4.98800        0.55900        0.23100
C          3.77300        1.14500        0.16100
C          3.46900        2.61000        0.26800
O          2.25300        2.96000        0.12900
O          4.44100        3.40500        0.48200
C          5.72200       -1.72900       -0.05500
C          5.40300       -3.04800       -0.41100
C          6.41000       -4.01200       -0.49100
C          7.73100       -3.66900       -0.20200
C          8.05200       -2.36000        0.16200
C          7.05200       -1.38800        0.23000
H          0.84800       -0.73600       -0.14900
H          1.02000        0.79500       -1.01700
H          0.92100        0.77100        0.76200
H          4.37800       -3.32700       -0.64400
H          6.16200       -5.02900       -0.78100
H          8.51300       -4.42100       -0.26200
H          9.07900       -2.09200        0.39100
H          7.31500       -0.36900        0.51300
