25
2232-08-8.pdb
C          2.44500       -0.02400        0.01000
C          0.94500        0.00900        0.04900
C          0.24700        1.22300        0.08300
C         -1.15200        1.24000        0.08300
C         -1.85600        0.03200        0.05700
C         -1.17100       -1.18500        0.02500
C          0.22500       -1.19300        0.02600
S         -3.62200        0.04500       -0.09500
O         -4.01400        1.25500       -0.79400
O         -4.06100       -1.27000       -0.52800
N         -4.20400        0.21600        1.47100
C         -4.46600        1.39200        2.11400
C         -4.87400        1.00100        3.37000
N         -4.81900       -0.36900        3.50000
C         -4.40800       -0.81600        2.33100
H          2.87200        0.98400        0.01700
H          2.78700       -0.52400       -0.90400
H          2.83500       -0.56200        0.88000
H          0.79000        2.16700        0.08700
H         -1.67200        2.19500        0.06900
H         -1.70600       -2.13100       -0.03200
H          0.75300       -2.14500       -0.01700
H         -4.37900        2.35900        1.63800
H         -5.20600        1.62800        4.18800
H         -4.26700       -1.85700        2.06600
