21
22323-82-6.pdb
C          1.36000       -0.02100       -1.51200
C          0.66400        0.00500       -0.15600
C          1.68800        0.03800        0.97300
O         -0.15000        1.17700       -0.09900
C         -1.50300        0.74300        0.01300
C         -1.50000       -0.75800       -0.16000
C         -2.01800       -1.21200       -1.52700
O         -1.94600       -2.63500       -1.61800
O         -0.13800       -1.16900       -0.00600
H          2.06600        0.81100       -1.61100
H          0.63600        0.08900       -2.32400
H          1.89000       -0.96500       -1.66900
H          2.33400        0.92000        0.90200
H          2.31200       -0.86300        0.96900
H          1.18900        0.08000        1.94800
H         -2.11600        1.26600       -0.72800
H         -1.86700        1.02600        1.00600
H         -2.09100       -1.25000        0.62200
H         -1.42400       -0.80300       -2.34600
H         -3.05900       -0.91400       -1.66900
H         -1.05400       -2.87800       -1.30400
