21
2233-18-3.pdb
C         -2.58300        0.55700        0.00100
C         -1.22800       -0.09100       -0.00600
C         -1.11800       -1.48700       -0.00800
C          0.14100       -2.09000        0.00100
C          0.25200       -3.56400        0.00800
O         -0.73000       -4.29500        0.00200
C          1.30200       -1.31000        0.00600
C          1.21500        0.09300       -0.00300
C          2.47700        0.90800       -0.02000
C         -0.05800        0.68500       -0.00300
O         -0.22100        2.04500       -0.00200
H         -3.38500       -0.18800       -0.02800
H         -2.70000        1.20400       -0.87400
H         -2.71200        1.15000        0.91200
H         -2.01200       -2.10800       -0.01600
H          1.27400       -3.97900        0.01800
H          2.27800       -1.79000        0.01400
H          3.37000        0.27400       -0.01400
H          2.52400        1.55500        0.86200
H          2.51500        1.52300       -0.92600
H          0.64200        2.48300        0.01900
