44
2234-14-2.pdb
C          2.81200       -0.85400       -1.22700
C          2.38300        0.03000       -0.05700
C          2.78800       -0.60100        1.28000
C          2.92300        1.45100       -0.17000
C          2.05400        2.53800       -0.26200
C          2.51600        3.87500       -0.26200
C          1.46500        4.99000       -0.24000
C          0.94900        5.32600       -1.64500
C          0.25600        4.68300        0.66900
C          3.92600        4.12400       -0.23900
C          4.39500        5.54500       -0.43500
C          5.52400        6.14300        0.36600
O          3.84600        6.25800       -1.27800
C          4.82700        3.02400       -0.14400
C          4.29200        1.71300       -0.11200
C          6.34700        3.12600        0.00400
C          6.72200        2.95200        1.48600
C          7.14200        2.10600       -0.82900
H          2.38200       -1.85800       -1.13300
H          3.90000       -0.96200       -1.28100
H          2.47800       -0.43500       -2.18300
H          1.28600        0.07300       -0.07400
H          3.88100       -0.70400        1.37200
H          2.35300       -1.59600        1.38600
H          2.44300        0.01000        2.12300
H          0.98800        2.33300       -0.31000
H          1.91600        5.89100        0.20000
H          0.42100        4.47300       -2.08400
H          1.75900        5.59300       -2.32600
H          0.25000        6.16900       -1.60900
H         -0.39300        3.90700        0.24800
H         -0.36500        5.57600        0.79300
H          0.57700        4.35600        1.66400
H          5.86100        5.50900        1.17700
H          5.18800        7.08100        0.81900
H          6.36000        6.35800       -0.30900
H          4.96300        0.86200       -0.02000
H          6.68900        4.09600       -0.35700
H          6.35300        1.99900        1.88700
H          6.29000        3.73500        2.11800
H          7.80700        2.97300        1.62300
H          7.09500        1.09600       -0.40500
H          8.20200        2.38600       -0.84800
H          6.78500        2.06300       -1.86200
