30
22396-77-6.pdb
C          1.11900        0.23900        0.06100
C          2.63300        0.04400        0.09200
N          3.06800       -1.35600        0.23800
C          2.51800       -2.26000       -0.78600
C          2.98400       -2.03300       -2.22100
C          4.53800       -1.40000        0.35000
C          5.04800       -2.81700        0.55800
C          5.48600       -4.03200        0.73700
C          5.97300       -5.39600        0.98000
O          7.03400       -5.35500        1.94800
C          6.87000       -6.13600        3.04500
C          8.05600       -6.03800        3.96000
O          5.90300       -6.84500        3.28200
H          0.88200        1.30300        0.17700
H          0.63000       -0.30200        0.87800
H          0.68700       -0.09100       -0.88700
H          3.01100        0.61200        0.95100
H          3.06900        0.50400       -0.80400
H          1.42200       -2.21800       -0.76000
H          2.73200       -3.30100       -0.51300
H          2.89900       -0.98700       -2.52400
H          2.36600       -2.62300       -2.90600
H          4.02200       -2.35200       -2.35700
H          4.86300       -0.80500        1.21200
H          5.02000       -0.98100       -0.54200
H          6.39500       -5.80600        0.05900
H          5.14000       -6.04000        1.27800
H          8.83800       -5.40600        3.53000
H          8.47200       -7.03800        4.11200
H          7.74500       -5.60800        4.91500
