28
22409-91-2.pdb
C          2.50100        2.46900        0.28900
C          2.52500        0.95100        0.23000
O          3.03600        0.48800        1.48900
C          4.39500        0.41500        1.54900
O          5.14400        0.37500        0.58200
C          4.84300        0.51200        2.98300
C          6.36400        0.54300        3.02800
O          6.80100        0.67300        4.38100
C          8.16000        0.74800        4.55900
C          9.11900        0.65600        3.54700
C         10.47900        0.76300        3.84900
C         10.89200        0.96400        5.16300
C          9.94200        1.05000        6.18000
C          8.58200        0.93800        5.87800
H          2.10400        2.89300       -0.63800
H          3.50700        2.86800        0.45500
H          1.88700        2.80700        1.12600
H          3.11700        0.59200       -0.61800
H          1.51000        0.56000        0.11100
H          4.45100       -0.32800        3.56600
H          4.44800        1.44000        3.40800
H          6.72100        1.39400        2.44000
H          6.75200       -0.39100        2.60100
H          8.84700        0.50300        2.50900
H         11.21500        0.69200        3.05100
H         11.95000        1.05400        5.39300
H         10.26100        1.20700        7.20700
H          7.84800        1.00500        6.67700
