31
22424-58-4.pdb
C          2.47300       -0.42000       -0.74600
C          0.98200       -0.33300       -0.59000
C          0.35300        0.91400       -0.73100
C         -1.01300        1.06100       -0.47300
O         -1.66400        2.25900       -0.59000
C         -0.99900        3.36400        0.04000
C         -0.54600        4.42800       -0.93600
C         -1.17500        4.60700       -2.17600
C         -0.89000        5.72600       -2.96200
C          0.03400        6.67200       -2.52400
C          0.70900        6.47900       -1.32100
C          0.42400        5.36200       -0.53300
C         -1.79000       -0.04600       -0.13300
C         -1.19900       -1.30400       -0.02000
C          0.17900       -1.43600       -0.25000
N          0.75600       -2.76800       -0.11100
O          1.35900       -3.23200       -1.09100
O          0.58200       -3.34500        0.96600
H          2.90300        0.55500       -0.99900
H          2.75200       -1.11300       -1.54400
H          2.92600       -0.73900        0.19900
H          0.93600        1.77700       -1.04400
H         -0.17600        3.04800        0.69300
H         -1.74500        3.83500        0.69200
H         -1.92000        3.89400       -2.52200
H         -1.41300        5.87300       -3.90400
H          0.22000        7.56500       -3.11500
H          1.43500        7.21300       -0.98200
H          0.93900        5.24500        0.41800
H         -2.85400        0.07300        0.05600
H         -1.80600       -2.16500        0.25200
