25
22428-87-1.pdb
O          1.10800        0.09400       -0.05600
C          2.53200        0.02900       -0.03600
C          2.99700       -1.24600       -0.74100
C          2.57400       -2.50400        0.02300
C          3.03700       -2.46500        1.48200
C          2.55400       -1.19000        2.17900
C          2.98900        0.06700        1.42200
O          4.47600       -2.50900        1.51100
C          4.78100       -3.38000        2.59800
C          3.65500       -4.37500        2.56100
O          2.51500       -3.60000        2.19000
H          0.82800        0.07400       -0.98700
H          2.91200        0.91100       -0.56300
H          4.08800       -1.22900       -0.84600
H          2.57300       -1.29100       -1.75100
H          2.99300       -3.38400       -0.48000
H          1.48300       -2.62100       -0.01800
H          2.95100       -1.14200        3.20200
H          1.46200       -1.21300        2.28100
H          4.08100        0.16400        1.46300
H          2.56300        0.94300        1.92600
H          4.77500       -2.79400        3.52300
H          5.76600       -3.83400        2.46800
H          3.48600       -4.87100        3.52100
H          3.81500       -5.13400        1.78700
