22
2243-82-5.pdb
N          1.14400       -0.18300       -0.17000
C          2.47200        0.11700       -0.03800
O          3.04800        0.81600       -0.86000
C          3.16000       -0.40400        1.17000
C          2.75300       -1.59000        1.78700
C          3.42300       -2.05000        2.92400
C          4.50500       -1.33400        3.45600
C          5.18500       -1.78600        4.59800
C          6.26000       -1.06500        5.11900
C          6.66900        0.11500        4.50600
C          6.00700        0.57700        3.36700
C          4.92400       -0.13700        2.82800
C          4.25000        0.31100        1.68200
H          0.65600        0.26800       -0.93300
H          0.59100       -0.52600        0.60300
H          1.93700       -2.18200        1.38200
H          3.09600       -2.97800        3.38700
H          4.88200       -2.70700        5.09100
H          6.77800       -1.42700        6.00300
H          7.50600        0.67800        4.91200
H          6.34400        1.50100        2.90100
H          4.56600        1.22600        1.18200
