15
2244-11-3.pdb
O         -0.26600       -0.49900       -0.05300
O          2.00600        0.27300        1.24600
C          3.01800        0.14700        0.56200
N          3.65200        1.23700        0.04400
C          4.44100        1.21200       -1.07800
O          4.55600        2.14100       -1.85600
C          5.08500       -0.13800       -1.32000
O          6.23300       -0.24000       -1.71500
C          4.26700       -1.33700       -0.90200
O          4.28200       -2.38800       -1.51400
N          3.45300       -1.08800        0.17800
H          0.45400       -0.62100       -0.68700
H          0.18100       -0.08400        0.71200
H          3.19300        2.12200        0.22300
H          2.87500       -1.86600        0.47200
