31
224779-27-5.pdb
C          3.48700       -1.32500        0.35200
C          2.76400       -0.01100        0.02800
C          2.88300        0.37700       -1.45400
C          1.27000       -0.20700        0.33800
O          3.23300        1.05000        0.91000
C          4.52600        1.46600        0.80800
O          5.32100        1.04400       -0.02700
N          4.88900        2.41600        1.75200
C          6.26700        2.86600        1.67200
C          6.62100        3.94800        2.62900
C          5.85200        4.35300        3.64400
C          4.52300        3.74500        3.93000
O          4.64400        3.09400        5.19600
C          4.00600        2.74600        2.87200
H          3.11100       -2.15200       -0.25900
H          3.35000       -1.58600        1.40900
H          4.56700       -1.25800        0.19100
H          2.44000       -0.38600       -2.10200
H          3.91800        0.50700       -1.77800
H          2.37700        1.33100       -1.64300
H          0.85100       -1.04400       -0.23400
H          0.69400        0.69300        0.09300
H          1.10700       -0.40300        1.40300
H          6.44300        3.22400        0.65000
H          6.92200        2.00200        1.83500
H          7.59200        4.41500        2.48000
H          6.20200        5.13800        4.31000
H          3.78500        4.54400        4.05500
H          5.35400        2.43500        5.10700
H          3.08400        3.14800        2.43300
H          3.72700        1.80100        3.35500
