14
22677-21-0.pdb
O          2.41400       -0.45000       -0.24500
C          1.20500       -0.09000        0.40500
C          0.70100        1.27900       -0.04300
N         -0.72200        1.16200        0.02100
C         -1.13500       -0.15100       -0.00600
O         -2.29800       -0.51300       -0.06400
C          0.07800       -1.04200        0.00800
H          3.11700        0.13700        0.08500
H          1.35500       -0.11700        1.49100
H          0.99500        1.51800       -1.07000
H          1.03600        2.08200        0.61900
H         -1.39100        1.91300       -0.09900
H          0.22800       -1.47400       -0.98600
H         -0.04100       -1.84300        0.74200
