26
22776-09-6.pdb
C          1.39300       -0.89700       -0.10600
C          2.58200        0.02100       -0.01200
O          2.92100        0.72100       -0.96500
C          3.36700        0.06200        1.25800
C          3.01500       -0.69700        2.38300
C          3.79700       -0.63800        3.54200
C          4.94600        0.15000        3.57000
O          5.64700        0.19000        4.74300
C          6.98100       -0.29800        4.58300
C          7.92300        0.75500        4.01500
C          7.59000        1.08400        2.56800
O          6.35000        1.78200        2.45500
C          5.29000        0.91900        2.45700
C          4.49600        0.89000        1.31200
H          0.97000       -0.83200       -1.11400
H          0.62300       -0.59300        0.60700
H          1.69800       -1.93300        0.06400
H          2.13500       -1.33300        2.38900
H          3.51300       -1.21100        4.42100
H          6.99500       -1.22100        3.98700
H          7.33000       -0.57200        5.58500
H          8.95200        0.38300        4.06900
H          7.85100        1.66700        4.61800
H          7.60300        0.18900        1.93000
H          8.36000        1.75600        2.17300
H          4.76700        1.51000        0.46000
