25
22821-80-3.pdb
C          1.00100        0.20300       -0.18300
C          2.45900       -0.17400       -0.19500
O          2.83900       -1.20900        0.34300
N          3.24700        0.75600       -0.85400
C          4.64400        0.68100       -1.04500
C          5.38400       -0.48500       -0.83200
C          6.77600       -0.48200       -0.95300
C          7.43500        0.69500       -1.30300
C          6.71000        1.86100       -1.55900
C          5.31400        1.84500       -1.44600
S          9.21300        0.73500       -1.28900
C          9.66900        0.22500       -2.92200
O          9.61600        2.11800       -1.12200
O          9.66400       -0.28400       -0.35900
H          0.46700       -0.44100        0.52400
H          0.57900        0.06100       -1.18100
H          0.87400        1.24100        0.13600
H          2.80100        1.62700       -1.11500
H          4.90400       -1.42000       -0.55500
H          7.32900       -1.39400       -0.73700
H          7.21800        2.78900       -1.81000
H          4.76800        2.76800       -1.62600
H          9.28800        0.95000       -3.64200
H          9.26400       -0.77000       -3.11500
H         10.76000        0.19400       -2.96900
