39
22839-47-0.pdb
C          1.10400        0.25400       -0.16800
O          2.53400        0.21400       -0.15200
C          3.13200        0.61200       -1.30900
O          2.54500        1.04100       -2.29900
C          4.66100        0.51100       -1.20300
C          5.11100       -0.91100       -0.82500
C          4.80300       -1.97400       -1.85800
C          5.71100       -2.24000       -2.89300
C          5.43200       -3.21600       -3.85000
C          4.24900       -3.94600       -3.77300
C          3.34500       -3.70000       -2.74100
C          3.61800       -2.71700       -1.78900
N          5.24800        1.00500       -2.45900
C          6.60100        1.16800       -2.63600
O          7.42800        0.90400       -1.76800
C          7.01900        1.67900       -4.02600
N          6.47200        0.78300       -5.08600
C          6.54200        3.11300       -4.22000
C          6.98300        3.73800       -5.51800
O          7.03500        2.89800       -6.57300
O          7.19000        4.94100       -5.63600
H          0.74600       -0.27300        0.72000
H          0.70400       -0.25300       -1.05200
H          0.75500        1.29000       -0.12300
H          4.97300        1.21600       -0.42100
H          4.65700       -1.20400        0.13000
H          6.19000       -0.92400       -0.63400
H          6.65300       -1.70000       -2.94600
H          6.14500       -3.41900       -4.64500
H          4.03800       -4.71800       -4.50900
H          2.43000       -4.28300       -2.67300
H          2.90600       -2.55200       -0.98300
H          4.58500        1.32300       -3.15800
H          8.11300        1.63600       -4.08700
H          5.46000        0.68600       -4.96600
H          6.82400       -0.16400       -4.89600
H          6.95700        3.72600       -3.40900
H          5.45100        3.19100       -4.16400
H          6.82300        1.96300       -6.31800
