18
22876-22-8.pdb
C          1.03900        0.07800       -0.05700
C          2.54100        0.06600       -0.05300
C          3.27000        1.28200       -0.05100
C          4.67100        1.29000       -0.04300
C          5.30900        0.07100       -0.03800
O          6.68300       -0.12800       -0.02800
C          6.75600       -1.51700       -0.02700
S          8.22400       -2.27300       -0.01400
N          5.52400       -2.11600       -0.03600
C          4.59700       -1.11100       -0.04200
C          3.22300       -1.16100       -0.05100
H          0.64500        1.10000       -0.05800
H          0.65800       -0.42900        0.83500
H          0.66100       -0.42900       -0.95000
H          2.74000        2.23300       -0.05400
H          5.22900        2.21900       -0.04000
H          5.35300       -3.11000       -0.03600
H          2.69000       -2.10400       -0.05300
