20
22927-13-5.pdb
C          1.07800       -0.01700       -0.17900
C          2.59800        0.02400       -0.11200
C          3.08400       -0.11400        1.31100
C          3.26900        1.06500        2.05800
C          3.64400        1.01900        3.40100
C          3.83900       -0.20700        4.02700
C          3.67100       -1.38800        3.30500
C          3.29600       -1.35100        1.95300
C          3.13200       -2.64900        1.25400
O          3.31200       -3.72400        1.81900
H          0.73900        0.06800       -1.21600
H          0.63700        0.81000        0.38900
H          0.68200       -0.95200        0.23400
H          2.95200        0.97400       -0.53200
H          3.03500       -0.74800       -0.75400
H          3.10700        2.03800        1.59400
H          3.77400        1.94200        3.96100
H          4.11900       -0.24700        5.07600
H          3.82700       -2.34300        3.80500
H          2.84300       -2.62800        0.19400
