23
22948-94-3.pdb
C          2.93000       -0.36700       -1.38700
C          2.49100       -0.06700        0.01600
O          1.58900       -0.66300        0.59200
N          3.19100        0.98200        0.65800
C          4.21600        1.73300        0.10900
C          4.63300        2.69500        1.00300
C          5.67800        3.66700        0.74100
O          6.31200        3.71200       -0.30900
C          3.85700        2.52600        2.18200
C          3.82700        3.19000        3.42900
C          2.94100        2.76900        4.42400
C          2.08400        1.70200        4.19300
C          2.08500        1.03400        2.96500
C          2.97900        1.45500        1.96000
H          2.32300       -1.18700       -1.78300
H          3.97600       -0.68700       -1.40300
H          2.77900        0.50300       -2.03300
H          4.58200        1.54500       -0.89300
H          5.88000        4.38400        1.55300
H          4.49200        4.02600        3.63100
H          2.92500        3.27800        5.38400
H          1.40000        1.37900        4.97500
H          1.40200        0.20200        2.80700
