10
2295-31-0.pdb
O          2.55500       -0.41900        0.00700
C          1.36800       -0.12300       -0.00900
C          0.84000        1.28700        0.00900
S         -0.96400        1.13300        0.00900
C         -0.91500       -0.61100       -0.01200
O         -1.90400       -1.32100        0.00600
N          0.36600       -1.04400       -0.04300
H          1.17500        1.81900       -0.88500
H          1.17600        1.79800        0.91400
H          0.56800       -2.03100       -0.04800
