23
22971-62-6.pdb
O          1.09900       -0.18300       -0.08100
C          2.43900       -0.00800        0.00700
O          2.93600        1.08700        0.20900
C          3.20100       -1.30200       -0.17400
C          4.70900       -1.08000       -0.07000
C          5.50900       -2.37300       -0.24300
C          7.01400       -2.12800       -0.13200
O          7.44400       -0.98800        0.04800
C          7.87800       -3.30000       -0.25100
S          9.57600       -3.10100       -0.08000
C          9.87000       -4.76600       -0.31400
C          8.70700       -5.46900       -0.52600
C          7.55600       -4.62500       -0.49000
H          0.82900       -1.10500       -0.24400
H          2.95400       -1.71300       -1.15900
H          2.87500       -2.00400        0.60100
H          4.94500       -0.63200        0.90400
H          5.02300       -0.35100       -0.82800
H          5.29700       -2.80700       -1.22700
H          5.21400       -3.09100        0.53100
H         10.88200       -5.14600       -0.28500
H          8.68300       -6.53800       -0.69800
H          6.54700       -4.98900       -0.63500
