22
230-07-9.pdb
C          2.90200       -1.50200       -0.00200
C          3.47500       -0.24900       -0.00000
N          2.76400        0.89700        0.00100
C          1.42200        0.81500        0.00000
C          0.69900        1.99300        0.00100
C         -0.69800        1.99400        0.00000
C         -1.42300        0.81800       -0.00100
N         -2.76500        0.90200       -0.00100
C         -3.47800       -0.24400       -0.00100
C         -2.90600       -1.49600       -0.00200
C         -1.51800       -1.57400       -0.00200
C         -0.72100       -0.40700       -0.00100
C          0.71800       -0.40800       -0.00100
C          1.51300       -1.57700       -0.00200
H          3.51200       -2.39700       -0.00200
H          4.55400       -0.12700        0.00100
H          1.23200        2.94100        0.00100
H         -1.23000        2.94300        0.00000
H         -4.55700       -0.12000       -0.00000
H         -3.51800       -2.39100       -0.00200
H         -1.07000       -2.56200       -0.00400
H          1.06400       -2.56400       -0.00400
