22
230-46-6.pdb
C          3.51000       -0.31600       -0.00200
C          2.78900       -1.49100       -0.00200
N          1.43800       -1.54500       -0.00300
C          0.73100       -0.38700       -0.00400
C          1.40000        0.85700       -0.00300
C          2.80100        0.87600       -0.00200
C          0.67400        2.05200       -0.00200
C         -0.71700        2.02200       -0.00200
C         -1.41200        0.82700       -0.00300
N         -2.75700        0.87300       -0.00300
C         -3.43400       -0.29600       -0.00200
C         -2.82600       -1.53400       -0.00100
C         -1.43600       -1.57200       -0.00200
C         -0.68200       -0.38300       -0.00400
H          4.59400       -0.32500       -0.00100
H          3.29000       -2.45500       -0.00200
H          3.34400        1.81700       -0.00100
H          1.18200        3.01300        0.00000
H         -1.27400        2.95600       -0.00000
H         -4.51700       -0.20400       -0.00100
H         -3.41200       -2.44500        0.00100
H         -0.93000       -2.53600       -0.00200
