22
230-17-1.pdb
C          3.54000       -0.28100        0.00100
C          2.90900       -1.51400       -0.00100
C          1.51500       -1.57200       -0.00100
C          0.71800       -0.39900       -0.00000
C          1.37900        0.84300        0.00100
C          2.77100        0.88300        0.00100
N          0.69200        1.99000        0.00100
N         -0.68300        1.99000        0.00000
C         -1.37200        0.84500       -0.00000
C         -2.76300        0.88700       -0.00100
C         -3.53500       -0.27500       -0.00000
C         -2.90600       -1.51000        0.00000
C         -1.51200       -1.57000       -0.00000
C         -0.71300       -0.39800       -0.00000
H          4.62500       -0.22000        0.00100
H          3.49100       -2.43200       -0.00100
H          1.06000       -2.55800       -0.00200
H          3.26900        1.85000        0.00200
H         -3.25900        1.85500       -0.00200
H         -4.62000       -0.21200       -0.00100
H         -3.49100       -2.42600        0.00100
H         -1.05900       -2.55800       -0.00000
