41
23001-29-8.pdb
C          2.28300        0.15100        1.26400
N          1.78500       -1.13600        0.76300
C          0.44000       -1.31800        1.22500
C         -0.64700       -0.53800        0.89300
C         -1.94200       -0.93000        1.27400
C         -2.13600       -2.09200        2.02900
C         -1.03000       -2.81000        2.45700
C          0.25800       -2.41800        2.05300
C          1.56700       -3.15500        2.30100
C          2.01900       -3.00900        3.75100
C          1.14300       -4.66500        2.07200
C          2.53400       -2.40100        1.14900
O          4.00700       -2.04200        1.32400
C          4.94000       -2.73400        0.51300
C          6.13800       -2.21700       -0.02800
C          6.99400       -3.08300       -0.78600
C          6.73300       -4.44700       -0.90400
O          7.55600       -5.31500       -1.55400
C          5.56600       -4.95400       -0.40400
C          4.68000       -4.04900        0.15000
C          3.31000       -4.46200        0.31400
C          2.53300       -3.39400        0.00600
H          1.59300        0.98100        1.03500
H          3.22500        0.41800        0.77700
H          2.43600        0.14700        2.35100
H         -0.53000        0.36900        0.29600
H         -2.80000       -0.33400        0.98100
H         -3.13600       -2.43100        2.26600
H         -1.20400       -3.71100        3.03900
H          1.35900       -3.58800        4.41200
H          1.98400       -1.97600        4.10400
H          3.03000       -3.40300        3.88700
H          0.32600       -4.99000        2.72000
H          1.92200       -5.38800        2.31400
H          0.77700       -4.83900        1.04800
H          6.38900       -1.16800        0.04400
H          7.87400       -2.68000       -1.28300
H          7.60000       -5.03100       -2.48400
H          5.30500       -6.00400       -0.50000
H          3.37300       -4.88700        1.31700
H          2.62700       -2.91900       -0.97100
