29
2304-94-1.pdb
O          2.51400       -0.41800        1.90500
C          2.82300       -1.57600        1.28400
O          2.77600       -2.65900        1.84900
C          3.26000       -1.40800       -0.14300
C          4.75200       -1.15600       -0.22400
N          5.56200       -2.28300        0.16700
C          6.92400       -2.20400        0.14600
O          7.54700       -1.19900       -0.16000
O          7.45300       -3.40200        0.47100
C          8.88000       -3.48800        0.38000
C          9.41500       -4.11000        1.64400
C          9.10600       -5.43700        1.97100
C          9.60100       -6.01000        3.14000
C         10.40600       -5.26100        3.99500
C         10.71800       -3.93800        3.68400
C         10.22000       -3.36300        2.51500
H          2.61000        0.38400        1.35800
H          2.70300       -0.57800       -0.59300
H          2.97500       -2.30900       -0.69800
H          5.04200       -0.29700        0.39200
H          5.02200       -0.91800       -1.26000
H          5.16000       -3.14600        0.51900
H          9.36500       -2.52100        0.19900
H          9.12700       -4.13200       -0.47300
H          8.46800       -6.02700        1.31300
H          9.35300       -7.03700        3.38700
H         10.79100       -5.70700        4.90900
H         11.34200       -3.35300        4.35300
H         10.46600       -2.32800        2.28700
