27
23074-42-2.pdb
N          0.93500        0.04700        0.06100
C          2.19600        0.04700        0.06100
C          3.71600        0.04700        0.06100
C          4.23600        0.92300        1.21900
C          5.77400        0.92600        1.22300
C          6.28000       -0.51600        1.39500
C          5.77400       -1.39800        0.24000
C          6.28000       -0.82600       -1.09600
C          5.77400        0.61500       -1.28200
C          6.27900        1.48600       -0.11900
C          4.23600        0.61200       -1.27700
C          4.23700       -1.39400        0.24000
H          3.86100        0.54900        2.18100
H          3.86100        1.95000        1.12100
H          6.14000        1.54900        2.04600
H          5.93300       -0.92100        2.35400
H          7.37600       -0.52800        1.42200
H          6.14100       -2.42300        0.36800
H          5.93500       -1.45400       -1.92600
H          7.37700       -0.84300       -1.11800
H          6.13900        1.01700       -2.23300
H          5.93300        2.51800       -0.24700
H          7.37600        1.51400       -0.12200
H          3.86100        0.01300       -2.11800
H          3.86100        1.63200       -1.43400
H          3.86200       -1.82300        1.17900
H          3.86200       -2.04100       -0.56500
