17
23074-10-4.pdb
C          3.79200       -0.12600        0.89700
C          2.63000       -0.05100       -0.08000
C          3.05400        0.49700       -1.39300
O          3.46900       -0.40600       -2.32700
C          3.80200        0.29900       -3.45000
C          4.27200       -0.42100       -4.60200
O          4.59900        0.09200       -5.67000
C          3.60200        1.64700       -3.23000
C          3.12200        1.77500       -1.90500
H          3.46900       -0.58800        1.83600
H          4.17800        0.87300        1.12800
H          4.61800       -0.72000        0.49100
H          1.84000        0.57900        0.34300
H          2.20100       -1.05100       -0.21600
H          4.32900       -1.51500       -4.47600
H          3.78400        2.43500       -3.94900
H          2.85600        2.68500       -1.38600
