22
23088-23-5.pdb
C          1.14100       -0.29000       -0.87800
O          2.56900       -0.28200       -0.89300
C          3.11100        0.95700       -0.98100
O          2.49400        2.00700       -1.05600
C          4.59500        0.87500       -0.97600
C          5.28000       -0.34100       -0.91800
C          6.67700       -0.35000       -0.92600
C          7.40500        0.83000       -0.98700
N          8.75000        0.77900       -0.99700
C          9.39500        1.96400       -1.05900
C          8.72100        3.16700       -1.10700
N          7.37300        3.23800       -1.09800
C          6.71100        2.06700       -1.04000
C          5.32300        2.06900       -1.03400
H          0.81200       -1.31200       -0.66900
H          0.75300        0.00900       -1.85600
H          0.75500        0.36400       -0.08900
H          4.74800       -1.28800       -0.86900
H          7.21000       -1.29700       -0.88400
H         10.47700        1.91800       -1.07000
H          9.24800        4.11300       -1.15500
H          4.80400        3.02500       -1.07800
