22
2309-48-0.pdb
O          0.98700       -0.05100       -0.04500
C          2.21700        0.02700       -0.04400
C          3.00600       -1.06200        0.61300
C          2.37900       -2.09100        1.20200
C          3.09200       -3.10600        1.90700
S          2.20500       -4.40800        2.61600
C          3.61000       -5.11800        3.27200
C          4.74300       -4.40500        2.96100
C          4.44400       -3.25500        2.17200
C          2.90900        1.16500       -0.65000
S          4.61500        1.30800       -0.73000
C          4.53200        2.80200       -1.55200
C          3.23300        3.20400       -1.75600
C          2.29900        2.26400       -1.23400
H          4.08200       -0.97600        0.62000
H          1.29200       -2.15100        1.17200
H          3.53900       -6.02600        3.85400
H          5.73500       -4.68800        3.28400
H          5.20500       -2.56300        1.83400
H          5.43900        3.31300       -1.84500
H          2.96300        4.12600       -2.25700
H          1.22200        2.37700       -1.28500
