19
23138-64-9.pdb
C          1.26300       -0.13100       -0.65300
C          2.51600        0.02000        0.17200
O          2.90800        1.12700        0.53600
C          3.28900       -1.20200        0.54400
C          2.85000       -2.48600        0.20400
C          3.60800       -3.59800        0.56200
C          4.80600       -3.43800        1.26200
C          5.27400       -2.15800        1.60900
C          4.49100       -1.05000        1.25300
N          6.45000       -1.91800        2.34800
C          7.34000       -2.64900        2.11800
O          8.22000       -3.39700        1.89500
H          0.88200        0.86100       -0.91500
H          0.49400       -0.65300       -0.07800
H          1.48100       -0.66000       -1.58400
H          1.92000       -2.64800       -0.33400
H          3.26600       -4.59800        0.30100
H          5.36500       -4.32900        1.53700
H          4.82800       -0.05300        1.53600
