24
23147-59-3.pdb
O          1.16800       -0.63800       -0.25700
C          2.37000        0.12100       -0.15100
C          2.97800       -0.00800        1.25700
O          4.12800        0.84800        1.40900
C          5.26200        0.35400        0.69100
O          6.34300        1.25500        0.85900
C          5.59900       -1.10300        1.09500
C          6.20300       -1.21800        2.50600
O          7.43200       -0.50100        2.59700
O          4.44900       -1.95600        0.93800
C          3.31400       -1.46700        1.66100
O          2.23400       -2.37100        1.49200
H          0.75000       -0.38600       -1.10200
H          2.14400        1.17200       -0.36100
H          3.05400       -0.23100       -0.92800
H          2.21600        0.35100        1.96100
H          5.02400        0.37700       -0.37600
H          6.78800        1.01300        1.69600
H          6.36300       -1.46500        0.39600
H          6.37900       -2.26600        2.77100
H          5.53300       -0.80500        3.26500
H          8.12600       -1.06100        2.20000
H          3.55700       -1.49300        2.72800
H          1.68000       -2.02400        0.76300
