15
23235-01-0.pdb
N          0.99300       -0.26700        0.00500
C          2.48700       -0.10700        0.06600
C          3.05600       -0.28900        1.47900
C          2.51300        0.70300        2.42400
C          2.07300        1.50500        3.20200
C          3.12100       -1.14900       -0.86700
O          2.17400       -1.80000       -1.59500
O          4.31600       -1.37600       -0.96500
H          0.59300        0.61300        0.35600
H          0.71900       -0.94400        0.72600
H          2.73300        0.88100       -0.34200
H          4.14800       -0.20300        1.45700
H          2.83500       -1.30000        1.84500
H          1.68900        2.21500        3.89900
H          1.31000       -1.39200       -1.33200
