21
23359-08-2.pdb
O          1.18500       -0.13600        0.45700
C          2.50200       -0.15900        0.17200
O          3.07800       -1.14500       -0.25400
C          3.15000        1.13800        0.44800
C          4.47000        1.27800        0.24400
C          5.21900        2.51600        0.51100
C          4.85000        3.40600        1.53000
C          5.59900        4.55900        1.77800
C          6.73800        4.82300        1.01600
C          7.53400        6.04000        1.27800
O          7.22300        6.84600        2.14500
C          7.13400        3.93900        0.01200
C          6.37700        2.78700       -0.23500
H          0.83700        0.70900        0.79200
H          2.53900        1.95300        0.81000
H          5.05100        0.44300       -0.14700
H          3.98500        3.21300        2.15900
H          5.29600        5.24000        2.56900
H          8.42800        6.18900        0.64900
H          8.02400        4.12700       -0.58200
H          6.69900        2.10400       -1.01900
