13
2346-00-1.pdb
C          0.94000       -0.03000        0.05500
C          2.43100       -0.00200        0.05200
N          3.16700       -1.05100       -0.12300
C          4.59100       -0.66900       -0.03100
C          4.76600        0.81000       -0.34000
S          3.22600        1.53600        0.24900
H          0.58000       -1.06000       -0.01800
H          0.55900        0.53800       -0.79800
H          0.55700        0.41300        0.97900
H          5.17300       -1.26800       -0.74200
H          4.96400       -0.90900        0.97300
H          4.84900        0.97600       -1.41800
H          5.63800        1.23900        0.15800
