10
2349-67-9.pdb
N          0.90200        0.13500        0.23700
C          2.25200        0.07100        0.16100
N          3.05900        1.08100        0.09700
N          4.34300        0.62400        0.02600
C          4.53700       -0.73100        0.03800
S          6.01900       -1.46500       -0.01900
S          2.98200       -1.51200        0.11800
H          0.51300        1.02600       -0.04800
H          0.40500       -0.67700       -0.10400
H          5.10700        1.29100       -0.00800
