24
23501-93-1.pdb
C          1.22800        0.23000       -0.39800
N          2.51600        0.03700        0.26300
C          3.26600        1.25300        0.57800
C          3.24400       -1.13700        0.03600
C          2.78400       -2.16600       -0.79900
C          3.53700       -3.32300       -1.03600
C          4.77100       -3.49500       -0.42000
C          5.25200       -2.52100        0.45800
C          6.60000       -2.64300        1.12100
O          6.91700       -3.99100        1.44100
C          4.48500       -1.35900        0.66600
H          0.76400        1.17500       -0.09100
H          0.52400       -0.56000       -0.11600
H          1.33700        0.25400       -1.48700
H          2.62600        2.14200        0.54300
H          4.08200        1.41400       -0.13500
H          3.67000        1.20800        1.59500
H          1.83100       -2.08600       -1.31400
H          3.15800       -4.08500       -1.71300
H          5.35900       -4.38600       -0.62900
H          6.62300       -2.07700        2.05800
H          7.37600       -2.24600        0.45900
H          6.15400       -4.34700        1.92400
H          4.87800       -0.61300        1.35200
