23
23550-40-5.pdb
C          1.11300        0.01900        0.09600
S          2.92800        0.01000        0.05200
C          3.30800       -1.81500       -0.14400
C          2.71400       -2.56600        1.05500
C          2.70900       -2.29100       -1.47500
C          4.85300       -1.90000       -0.15800
C          5.45400       -3.29600       -0.30800
C          6.95800       -3.38700       -0.31600
O          4.78200       -4.31900       -0.41800
H          0.77500        1.05400        0.19700
H          0.73400       -0.53800        0.95600
H          0.69100       -0.37800       -0.82900
H          1.62000       -2.58100        1.02900
H          3.02600       -2.11900        2.00700
H          3.02500       -3.61400        1.08000
H          1.61400       -2.30000       -1.45200
H          3.00900       -3.31300       -1.71900
H          3.02600       -1.65700       -2.31100
H          5.25800       -1.49500        0.78000
H          5.25500       -1.30500       -0.98800
H          7.40700       -2.39500       -0.20900
H          7.28700       -3.82100       -1.26400
H          7.28400       -4.01200        0.52000
