15
2361-27-5.pdb
N          1.16700       -0.37600        2.75400
N          2.56000       -0.30600        2.53800
C          3.08200        0.21200        1.35000
O          2.35400        0.55100        0.41900
C          4.53800        0.29800        1.29500
S          5.53400       -0.38000        2.51700
C          6.96600        0.07000        1.70100
C          6.70200        0.74300        0.53200
C          5.30100        0.87600        0.29700
H          0.95200       -1.24200        3.25200
H          0.72000       -0.47000        1.83100
H          3.19900       -0.45700        3.31500
H          7.93100       -0.18300        2.11800
H          7.47500        1.11700       -0.12800
H          4.86700        1.36900       -0.56600
