19
2362-62-1.pdb
C          2.48800       -0.00600       -0.01100
C          0.98600        0.00300       -0.00700
C          0.27100        1.20400       -0.00900
C         -1.13000        1.19900       -0.01200
C         -1.84100       -0.00900       -0.01700
C         -1.11900       -1.21000       -0.00800
C          0.28100       -1.20500       -0.00400
C         -3.33600       -0.00700       -0.01400
N         -3.96600        1.05800       -0.61100
S         -4.31000       -1.19600        0.65000
H          2.89500        1.01000        0.00500
H          2.85900       -0.50200       -0.91500
H          2.86700       -0.53400        0.87000
H          0.79800        2.15600        0.00100
H         -1.64700        2.15400        0.01700
H         -1.62900       -2.17100       -0.01100
H          0.81500       -2.15300        0.00200
H         -3.48600        1.78800       -1.12200
H         -4.97900        1.05200       -0.65200
