19
2362-63-2.pdb
C          2.48800       -0.00200       -0.01300
C          0.98700        0.00600       -0.00900
C          0.27400        1.20800       -0.01300
C         -1.12100        1.19900       -0.01300
C         -1.81700       -0.01300       -0.00700
C         -1.12300       -1.23100       -0.00300
C          0.28200       -1.20900       -0.00500
C         -1.87100       -2.52600        0.02100
N         -3.11200       -2.54600       -0.57000
S         -1.32600       -3.95300        0.70400
H          2.89500        1.01400        0.00600
H          2.85900       -0.49600       -0.91600
H          2.86500       -0.53000        0.86800
H          0.79900        2.16100       -0.01000
H         -1.66700        2.13900       -0.00800
H         -2.90200        0.01500        0.02200
H          0.84700       -2.13800       -0.00700
H         -3.50200       -1.77400       -1.09300
H         -3.61500       -3.42500       -0.59500
