65
2363-71-5.pdb
C          1.03800        0.06500        0.02300
C          2.55300        0.07000        0.02700
C          3.07600        1.38400        0.59000
C          4.59500        1.39100        0.59800
C          5.10700        2.70500        1.16100
C          6.62500        2.70900        1.16700
C          7.13500        4.02200        1.73100
C          8.65200        4.02600        1.73700
C          9.16200        5.33800        2.30100
C         10.67900        5.34200        2.30500
C         11.18900        6.65300        2.87200
C         12.70600        6.65800        2.87400
C         13.21700        7.96800        3.44200
C         14.73300        7.97300        3.44400
C         15.24500        9.28300        4.01300
C         16.76300        9.28600        4.01400
C         17.27900       10.59500        4.58200
C         18.80100       10.60400        4.58800
C         19.31100       11.92300        5.16200
C         20.84000       11.97700        5.19000
C         21.36300       13.27800        5.75500
O         22.71100       13.36700        5.79600
O         20.65800       14.18200        6.14600
H          0.66300       -0.87800       -0.38200
H          0.65000        0.88400       -0.59200
H          0.64800        0.18600        1.03900
H          2.92600       -0.07200       -0.99400
H          2.92300       -0.76800        0.62900
H          2.70000        1.52900        1.61100
H          2.70500        2.22300       -0.01200
H          4.97500        1.25100       -0.42200
H          4.97000        0.55600        1.20200
H          4.73000        2.84800        2.18100
H          4.73500        3.54200        0.55800
H          7.00400        2.56800        0.14800
H          6.99900        1.87300        1.77100
H          6.75700        4.16400        2.75100
H          6.76200        4.85900        1.12700
H          9.03100        3.88600        0.71600
H          9.02600        3.18900        2.33900
H          8.78600        5.47800        3.32200
H          8.78800        6.17500        1.70000
H         11.05600        5.20400        1.28400
H         11.05400        4.50400        2.90600
H         10.81400        6.79100        3.89300
H         10.81400        7.49100        2.27200
H         13.08200        6.52100        1.85200
H         13.08200        5.81900        3.47200
H         12.84100        8.10400        4.46400
H         12.84100        8.80700        2.84400
H         15.10900        7.83600        2.42300
H         15.10900        7.13300        4.04300
H         14.86900        9.41900        5.03400
H         14.86900       10.12200        3.41400
H         17.13700        9.14900        2.99200
H         17.13700        8.44600        4.61300
H         16.90000       10.73200        5.60200
H         16.90200       11.43300        3.98300
H         19.17700       10.46800        3.56600
H         19.17500        9.76300        5.18700
H         18.90200       12.04500        6.17800
H         18.90700       12.74900        4.55700
H         21.21200       11.86500        4.16600
H         21.20700       11.15300        5.81200
H         23.21900       12.60500        5.46600
