22
2373-76-4.pdb
C          2.50400        0.15500        0.00400
C          1.00300        0.02900        0.01100
C          0.24300        1.21500        0.00500
C         -1.15000        1.17900        0.00300
C         -1.80500       -0.04300       -0.00900
C         -1.06800       -1.22700       -0.00900
C          0.34000       -1.22000        0.02500
C          1.08200       -2.50500        0.00800
C          0.61600       -3.62800        0.58200
C          1.20700       -4.98200        0.61000
O          2.39200       -5.12800       -0.00400
O          0.63100       -5.90800        1.15900
H          2.81700        1.20600        0.01000
H          2.92300       -0.29800       -0.90000
H          2.93400       -0.31800        0.89200
H          0.73700        2.18500        0.00200
H         -1.72000        2.10400        0.00100
H         -2.89100       -0.08100       -0.02400
H         -1.62200       -2.16400       -0.04600
H          2.03000       -2.47300       -0.51300
H         -0.33200       -3.62000        1.11500
H          2.75600       -4.32900       -0.41700
