36
2373-89-9.pdb
C          1.26700        0.25300       -0.19800
O          2.67100        0.07300       -0.04400
C          3.23500       -0.96200       -0.73800
C          2.55800       -1.84200       -1.57900
C          3.25000       -2.87600       -2.21900
C          4.63100       -3.04000       -2.04300
C          5.37400       -4.14300       -2.67200
C          5.04900       -4.66100       -3.86500
C          5.82600       -5.78800       -4.44900
O          6.56700       -6.49300       -3.77500
C          5.61600       -6.06300       -5.89500
C          5.34300       -5.03100       -6.80300
C          5.11900       -5.31800       -8.15300
C          5.17300       -6.63500       -8.60900
O          4.95300       -7.04400       -9.89600
C          4.62400       -6.03300      -10.84200
C          5.47600       -7.66000       -7.70700
C          5.70400       -7.37900       -6.35600
C          5.30300       -2.15500       -1.19500
C          4.60900       -1.12200       -0.55300
H          0.96400        1.09200        0.43600
H          0.71300       -0.63100        0.13600
H          1.01700        0.50900       -1.23300
H          1.49000       -1.76500       -1.75200
H          2.68200       -3.56100       -2.84400
H          6.23000       -4.52800       -2.12200
H          4.21300       -4.28500       -4.44100
H          5.31700       -3.99300       -6.48400
H          4.90600       -4.48900       -8.82000
H          4.43100       -6.52200      -11.80200
H          5.46100       -5.34100      -10.98200
H          3.71300       -5.49800      -10.55400
H          5.53200       -8.68800       -8.05900
H          5.93700       -8.18900       -5.66800
H          6.37300       -2.25300       -1.02500
H          5.14700       -0.44300        0.10400
