18
2374-03-0.pdb
N          1.69500       -1.42700        0.19800
C          0.49700       -0.71800        0.01500
C         -0.72800       -1.38600        0.05300
C         -1.92600       -0.66800        0.00700
C         -1.90800        0.73300       -0.03200
C         -0.68700        1.41900       -0.04300
C          0.49900        0.68700        0.00400
O          1.71500        1.32200        0.00100
C         -3.21000        1.44200       -0.09700
O         -3.21500        2.63600        0.53100
O         -4.19400        0.97000       -0.64000
H          1.70000       -2.34700       -0.22700
H          2.49400       -0.85500       -0.07600
H         -0.75800       -2.47000        0.11700
H         -2.87400       -1.20500        0.01100
H         -0.65800        2.50000       -0.11700
H          1.57900        2.28200        0.01400
H         -2.45000        2.80200        1.11200
