23
23747-48-0.pdb
C          2.90700        0.57900        1.32300
C          2.46400        0.13800       -0.06500
C          2.96300       -1.27500       -0.41300
C          3.19600       -1.27900       -1.92800
C          3.40800        0.17000       -2.21600
C          3.03100        0.95300       -1.19700
N          3.08800        2.31300       -1.12800
C          3.60700        2.91100       -2.15600
C          4.10000        2.20900       -3.39900
N          3.87100        0.71400       -3.44300
H          2.50900       -0.09600        2.08700
H          2.54100        1.58800        1.54600
H          3.99900        0.59200        1.41500
H          1.36900        0.16800       -0.12100
H          2.24600       -2.04600       -0.11200
H          3.90800       -1.49500        0.10300
H          2.32000       -1.65500       -2.46600
H          4.06700       -1.88700       -2.18800
H          3.71000        4.00800       -2.13200
H          5.17400        2.38300       -3.52000
H          3.57600        2.63100       -4.26300
H          4.74200        0.25100       -3.74000
H          3.18100        0.52100       -4.18200
