16
23771-52-0.pdb
N          1.08000       -0.02300        0.23200
C          2.44200        0.05800        0.13700
N          3.12300       -1.04500        0.03700
C          4.51200       -0.99300       -0.04100
S          5.35100       -2.47300       -0.11000
N          5.26500        0.17400       -0.08200
C          4.61900        1.28300       -0.02000
N          5.12300        2.57600       -0.05800
N          4.05600        3.40800        0.24100
C          2.90100        2.63400        0.25900
C          3.15500        1.32500        0.14100
H          0.71400       -0.93400       -0.02500
H          0.53200        0.75300       -0.11900
H          6.00800        2.70300        0.43200
H          3.97400        4.26400       -0.31500
H          1.94200        3.11900        0.37100
