18
23785-21-9.pdb
C          2.10400       -1.91500       -0.67900
C          2.50600       -0.48700       -0.35200
O          3.15900        0.06200       -1.50200
C          4.49300       -0.19200       -1.58900
O          5.20800       -0.57600       -0.67300
C          4.91900       -0.07000       -2.94900
N          6.18200       -0.39700       -3.38300
C          6.20500       -0.26600       -4.74100
N          5.05600        0.16700       -5.20200
C          4.24900        0.29500       -4.09800
H          1.54400       -2.36900        0.14100
H          2.98800       -2.52900       -0.88400
H          1.49100       -1.93800       -1.58700
H          3.13600       -0.43900        0.54300
H          1.61400        0.11800       -0.15800
H          6.93700       -0.72600       -2.79400
H          7.07600       -0.50600       -5.33500
H          3.21900        0.61700       -4.19200
