18
23787-80-6.pdb
C          3.32600        1.33600       -0.08000
C          2.47900        0.08400       -0.06300
O          1.25400        0.14900       -0.05600
C          3.19900       -1.22900       -0.05800
N          4.56200       -1.13400       -0.06600
C          5.24100       -2.30200       -0.06200
C          4.60500       -3.52600       -0.05000
N          3.26000       -3.63500       -0.04100
C          2.54800       -2.46900       -0.04500
C          1.06000       -2.64200       -0.03500
H          2.67100        2.21400       -0.08000
H          3.93800        1.37200       -0.98400
H          3.95500        1.38500        0.81300
H          6.32300       -2.22700       -0.06900
H          5.15800       -4.45900       -0.04700
H          0.80300       -3.70800       -0.02600
H          0.60900       -2.20900       -0.93100
H          0.62100       -2.19800        0.86400
