28
2384-86-3.pdb
C          0.92000        0.02400        0.06400
C          2.43700        0.03000        0.06700
C          2.96500        1.11600        1.00000
C          4.48800        1.12600        1.01100
C          4.99900        2.21000        1.94500
C          6.51900        2.21000        1.94500
C          7.82300        2.21000        1.94500
C          9.34300        2.21000        1.94500
C          9.86800        3.57200        1.50700
C         11.38700        3.58900        1.50100
H          0.54800       -0.75500       -0.60800
H          0.52600        0.98600       -0.27700
H          0.52900       -0.17400        1.06600
H          2.80500        0.20400       -0.95100
H          2.80700       -0.94900        0.38600
H          2.59100        0.94200        2.01800
H          2.58800        2.09200        0.67800
H          4.86800        1.29700       -0.00500
H          4.86800        0.14700        1.32900
H          4.64600        2.04000        2.96900
H          4.64600        3.19700        1.62600
H          9.69500        1.42500        1.26800
H          9.69600        1.96700        2.95400
H          9.49500        4.35400        2.18000
H          9.49500        3.81500        0.50400
H         11.78200        3.38100        2.50100
H         11.75500        4.57000        1.18600
H         11.78200        2.83700        0.81100
