30
23853-10-3.pdb
C          3.18200        6.57400        0.10600
C          2.64700        5.50600       -0.83200
O          3.13000        4.23000       -0.37800
C          4.34500        3.85700       -0.84900
O          4.97400        4.38400       -1.75800
C          4.92700        2.75200        0.01500
N          6.46300        2.86500        0.16400
C          6.86300        4.19400        0.77500
C          8.37400        4.27400        0.91400
C          8.91500        3.10100        1.71400
C          8.51800        1.78500        1.05900
C          7.00900        1.67300        0.90300
H          2.79900        7.56300       -0.16200
H          4.27600        6.60200        0.08300
H          2.89700        6.35100        1.14000
H          2.93300        5.70200       -1.87100
H          1.55400        5.47800       -0.78700
H          4.71300        1.78200       -0.44500
H          4.51900        2.79800        1.02900
H          6.83300        2.86400       -0.80100
H          6.36000        4.27400        1.74400
H          6.51400        4.99400        0.11600
H          8.64500        5.21500        1.40600
H          8.83800        4.28700       -0.07900
H          8.51900        3.13900        2.73900
H         10.00600        3.17000        1.79000
H          8.88600        0.94800        1.66200
H          8.99900        1.70700        0.07600
H          6.51200        1.63500        1.87900
H          6.74700        0.78000        0.32600
