21
2386-25-6.pdb
C          1.19500       -0.37800       -0.86200
C          2.39800       -0.01700       -0.03700
O          2.71300        1.17400        0.04700
C          3.18300       -1.06100        0.65100
C          2.97000       -2.44100        0.70200
C          1.94800       -3.36600        0.14000
N          3.97500       -2.99100        1.46800
C          4.82200       -2.02100        1.91100
C          4.37200       -0.80900        1.43700
C          5.01000        0.51300        1.69900
H          0.76600        0.53000       -1.29600
H          0.43100       -0.83600       -0.23100
H          1.48700       -1.03500       -1.68500
H          1.17800       -2.87200       -0.44800
H          1.44200       -3.90300        0.94900
H          2.42800       -4.10500       -0.51100
H          4.07100       -3.97700        1.67500
H          5.67400       -2.26900        2.53000
H          5.92100        0.40200        2.29600
H          4.32600        1.16500        2.25000
H          5.28700        1.00200        0.75900
