16
2387-48-6.pdb
N          1.12700        0.03600       -0.15700
C          2.47200       -0.08300       -0.04600
N          3.03900       -1.24100       -0.05500
C          4.41800       -1.30000        0.07900
O          4.99200       -2.38400        0.15000
C          5.19500        0.00900        0.16000
C          4.49200        1.17400        0.15500
N          5.05000        2.44300        0.25000
N          3.12500        1.09600        0.04700
N          6.52400       -0.03500        0.30200
O          7.12000       -0.63800       -0.59800
H          0.67500       -0.87300       -0.08000
H          0.69400        0.70500        0.46700
H          6.05400        2.45400        0.07200
H          4.57000        3.13100       -0.32200
H          2.61300        1.96200        0.06600
