30
23873-81-6.pdb
O          1.95600        1.04500        1.14000
N          2.23000        0.28500       -0.01000
C          3.02600        0.94300       -0.96300
C          2.22000        1.70600       -1.95900
C          1.80000        1.11200       -3.15000
C          1.02000        1.82600       -4.06300
C          0.65600        3.14600       -3.78900
C          1.07100        3.75100       -2.60500
C          1.84700        3.03400       -1.68600
C          4.38800        0.86900       -1.04000
N          5.12600        1.44600       -2.00600
O          4.93700        2.65600       -2.18400
C          5.09000       -0.04500       -0.09200
C          5.34300       -1.37800       -0.46300
C          6.02600       -2.24000        0.40000
C          6.46700       -1.78000        1.63900
C          6.22400       -0.46100        2.01900
C          5.53800        0.40400        1.15900
H          1.68900        0.37400        1.79600
H          1.33900        0.03400       -0.45300
H          2.08400        0.08700       -3.38100
H          0.70500        1.36000       -4.99200
H          0.05500        3.70500       -4.50200
H          0.79700        4.78000       -2.39200
H          2.17000        3.51500       -0.76900
H          5.01600       -1.74700       -1.43200
H          6.22000       -3.26600        0.10000
H          7.00600       -2.44900        2.30600
H          6.57700       -0.10100        2.98200
H          5.36300        1.43300        1.46500
