40
2387-23-7.pdb
O          1.11100       -0.18600       -0.17900
C          2.32600       -0.04600       -0.12900
N          2.95900        1.16700       -0.00500
C          2.22600        2.42600        0.05800
C          1.95000        2.99100       -1.34200
C          1.17700        4.30700       -1.26500
C          1.88400        5.34000       -0.38800
C          2.21900        4.77700        0.99200
C          2.99000        3.46100        0.89700
N          3.21700       -1.09000       -0.12000
C          2.80800       -2.49100       -0.15400
C          3.85900       -3.35500        0.55800
C          3.51100       -4.84100        0.52200
C          3.25900       -5.33200       -0.90000
C          2.21700       -4.47400       -1.61200
C          2.59500       -2.99200       -1.59000
H          3.95800        1.19900       -0.11800
H          1.26500        2.22600        0.54800
H          1.38300        2.26800       -1.94000
H          2.89900        3.15600       -1.87100
H          0.17600        4.11600       -0.86000
H          1.03900        4.71700       -2.27200
H          1.25300        6.22800       -0.28100
H          2.81000        5.66300       -0.88200
H          1.28900        4.61400        1.55100
H          2.80600        5.51100        1.55600
H          3.17300        3.07000        1.90500
H          3.97800        3.65000        0.45400
H          4.19000       -0.87800       -0.27300
H          1.85500       -2.57400        0.38700
H          3.96400       -3.03000        1.60100
H          4.84000       -3.20500        0.08800
H          2.62000       -5.02300        1.13400
H          4.32800       -5.42000        0.97100
H          2.92700       -6.37700       -0.87500
H          4.19900       -5.31200       -1.46600
H          1.24300       -4.61100       -1.12800
H          2.10900       -4.81600       -2.64800
H          1.81200       -2.40800       -2.08700
H          3.51300       -2.84400       -2.17500
