36
23912-79-0.pdb
O          1.42500       -0.68400       -0.55500
C          2.61600       -0.52500       -0.32900
C          3.49100       -1.68600        0.05200
C          3.06800       -3.01100        0.09400
C          3.83300       -3.95500        0.79900
C          4.91100       -3.53800        1.58000
C          5.47500       -2.30700        1.31900
C          4.78300       -1.43800        0.48700
C          5.45400       -0.25200       -0.00400
O          6.66800       -0.22500       -0.12300
C          4.60900        0.90800       -0.27800
C          5.30800        2.09600       -0.22400
C          4.56900        3.24700       -0.04600
C          5.35200        4.38500        0.42300
O          6.57100        4.39100        0.30400
C          4.62600        5.52300        1.00300
C          5.45300        6.54000        1.47100
C          5.55800        7.67500        0.71000
C          4.47300        7.98500       -0.10200
C          3.36100        7.10900       -0.20600
C          3.47800        5.80500        0.27900
C          2.56600        4.66300       -0.09600
O          1.40400        4.83500       -0.35900
C          3.18500        3.27800       -0.13800
C          2.48200        2.06300       -0.29300
C          3.23400        0.83700       -0.32400
H          2.15100       -3.32200       -0.39900
H          3.58000       -5.01100        0.77200
H          5.33700       -4.18300        2.34400
H          6.43100       -2.02100        1.75000
H          6.37800        2.11000       -0.16600
H          5.93700        6.46000        2.43900
H          6.43500        8.31900        0.80000
H          4.48300        8.92600       -0.63700
H          2.49600        7.41400       -0.78000
H          1.39000        2.05000       -0.34200
