23
2393-17-1.pdb
N          2.40600       -0.04400       -0.18700
C          1.02200       -0.01900        0.01500
C          0.33300        1.19300        0.00000
C         -1.06500        1.22700        0.04800
C         -1.80600        0.04000        0.04300
C         -3.31700        0.02500        0.02000
C         -3.99900        1.18500       -0.70400
C         -3.74300        1.37000       -2.18500
O         -2.93500        0.49300       -2.80200
O         -4.27100        2.28400       -2.81000
C         -1.11200       -1.17800        0.03800
C          0.28500       -1.20300       -0.00400
H          2.88300        0.79600        0.12600
H          2.85700       -0.89000        0.14600
H          0.87900        2.13200       -0.05400
H         -1.54800        2.20100        0.05800
H         -3.66500        0.00400        1.06000
H         -3.65900       -0.91100       -0.44400
H         -3.75500        2.13100       -0.20900
H         -5.08200        1.04000       -0.60400
H         -2.46100       -0.15000       -2.24300
H         -1.65100       -2.12400        0.04000
H          0.79500       -2.16100       -0.05900
