15
23945-44-0.pdb
O          1.43300       -0.80600        0.25500
C          2.47800        0.01800        0.02800
O          2.81000        0.35100       -1.10100
C          3.18400        0.47600        1.24200
C          4.23500        1.29900        1.11300
N          4.92800        1.75400        2.20600
C          4.62500        1.40900        3.49400
O          5.26000        1.83400        4.45200
N          3.56300        0.56000        3.63800
C          2.79900        0.07900        2.61200
O          1.82600       -0.65200        2.79600
H          1.25300       -1.00000        1.20700
H          4.59000        1.64800        0.14600
H          5.71700        2.38300        2.08900
H          3.31500        0.29900        4.58000
