25
2396-68-1.pdb
C          0.97300        0.16200        0.06500
C          2.51500        0.04700        0.05000
C          3.02900        0.94700       -1.09300
C          3.02800        0.60200        1.39700
C          3.02400       -1.39500       -0.13600
C          2.15600       -2.49200       -0.25800
C          2.64400       -3.79900       -0.38700
C          4.01400       -4.04600       -0.39400
S          4.65100       -5.70000       -0.53600
C          4.89400       -2.97000       -0.29000
C          4.40400       -1.66300       -0.16400
H          0.65400        1.20400        0.18600
H          0.53600       -0.40600        0.89500
H          0.53200       -0.20400       -0.86900
H          2.63200        1.96600       -1.00100
H          2.72300        0.55900       -2.07200
H          4.12100        1.03000       -1.09600
H          2.66300        1.62200        1.56900
H          4.12200        0.64200        1.43800
H          2.69000       -0.01900        2.23400
H          1.07700       -2.36500       -0.25300
H          1.93000       -4.61400       -0.47900
H          3.49700       -6.34500       -0.31500
H          5.96900       -3.13400       -0.29800
H          5.12800       -0.85500       -0.08100
