21
2396-78-3.pdb
C          1.70800        0.61200        1.15200
C          2.56500        0.00600        0.05200
C          3.10700        1.05700       -0.87500
C          4.42100        1.26600       -1.06000
C          5.00700        2.31700       -1.96300
C          5.88200        3.29000       -1.18600
O          6.11200        3.25100        0.01400
O          6.39700        4.22200       -2.04400
C          7.24000        5.18100       -1.40300
H          1.33400       -0.17600        1.81400
H          0.84300        1.14100        0.73700
H          2.28200        1.31900        1.75900
H          1.96500       -0.70100       -0.53100
H          3.37900       -0.56700        0.51000
H          2.37900        1.66300       -1.40900
H          5.14100        0.65600       -0.51500
H          4.21800        2.88600       -2.46600
H          5.62800        1.82300       -2.71800
H          7.61100        5.87100       -2.16500
H          8.09800        4.68800       -0.93500
H          6.67200        5.75400       -0.66300
