39
2398-96-1.pdb
C          3.21400        0.36700        1.31000
N          2.65300       -0.00200        0.00200
C          3.44500       -0.62400       -0.97700
S          5.12200       -0.71900       -1.00200
O          2.69200       -1.33900       -1.93400
C          3.06200       -1.68700       -3.26400
C          3.65100       -0.74600       -4.09900
C          3.86700       -1.05800       -5.43700
C          3.47600       -2.30400       -5.95200
C          3.65700       -2.59800       -7.31300
C          3.26800       -3.83200       -7.83000
C          2.70200       -4.79000       -6.99300
C          2.51200       -4.51300       -5.63900
C          2.88600       -3.26500       -5.09700
C          2.67500       -2.94300       -3.74300
C          1.34300        0.53200       -0.28800
C          0.40200        0.72900        0.73400
C         -0.82000        1.36100        0.48600
C         -1.11700        1.83500       -0.78700
C         -0.20200        1.65800       -1.82700
C         -0.47000        2.22900       -3.18900
C          1.00900        0.98700       -1.57400
H          4.22700       -0.01100        1.45800
H          2.60800       -0.05900        2.11400
H          3.24000        1.45900        1.39000
H          3.93000        0.23600       -3.73000
H          4.33000       -0.31400       -6.08200
H          4.09400       -1.86000       -7.98200
H          3.40700       -4.04300       -8.88800
H          2.40700       -5.75400       -7.39700
H          2.06300       -5.27300       -5.00400
H          2.19600       -3.65000       -3.06900
H          0.58400        0.38200        1.74600
H         -1.53300        1.49800        1.29600
H         -2.05700        2.35400       -0.95800
H         -1.44600        2.72500       -3.23200
H         -0.45900        1.43800       -3.94500
H          0.29200        2.97500       -3.43500
H          1.71300        0.89900       -2.39500
