22
24019-66-7.pdb
O          2.31700        0.14800        0.10100
C          0.95200        0.09400        0.06000
C          0.29100       -1.14300        0.04900
C          1.02300       -2.46100        0.15600
C          1.39600       -3.14300       -1.13400
C          1.22400       -2.70600       -2.38900
C         -1.11500       -1.14700       -0.04000
C         -1.83700        0.04500       -0.09500
C         -1.16800        1.26600       -0.05800
C          0.22500        1.29100        0.02200
C          0.93200        2.59200        0.05100
O          0.32800        3.65300       -0.03300
H          2.63600       -0.29600       -0.70600
H          0.39800       -3.15500        0.73400
H          1.93100       -2.32800        0.75700
H          1.85200       -4.12600       -1.00300
H          0.76500       -1.75000       -2.61900
H          1.53200       -3.32000       -3.23100
H         -1.65700       -2.09400       -0.05900
H         -2.92400        0.02300       -0.15300
H         -1.73200        2.19400       -0.09600
H          2.02400        2.56900        0.14400
