27
24016-03-3.pdb
N          2.13600       -0.14500       -1.30600
C          0.89900       -0.11400       -0.66600
N          0.29800        1.09500       -0.72100
C         -0.93500        1.20900       -0.18200
C         -1.60300        0.16900        0.43100
C         -0.96900       -1.06700        0.48900
C          0.30800       -1.22800       -0.05900
O          0.79200       -2.50700        0.00400
C          2.19900       -2.66000        0.18700
C          2.49400       -4.13100        0.39700
C          2.15400       -5.06100       -0.60000
C          2.46100       -6.41600       -0.44700
C          3.11100       -6.85400        0.70300
C          3.45200       -5.94000        1.70100
C          3.14800       -4.58500        1.54900
H          2.27600        0.79500       -1.67400
H          2.11500       -0.82200       -2.06200
H         -1.38800        2.19300       -0.26900
H         -2.59100        0.31000        0.85000
H         -1.46300       -1.91200        0.96100
H          2.54100       -2.06900        1.04500
H          2.75600       -2.37000       -0.70800
H          1.64800       -4.72900       -1.50400
H          2.19500       -7.12200       -1.22700
H          3.35300       -7.90500        0.82300
H          3.96200       -6.28500        2.59800
H          3.42800       -3.88800        2.33500
