17
24044-07-3.pdb
O          2.79600       -0.99700        0.60800
C          2.27600       -0.02500       -0.03200
O          1.22700        0.61000        0.30400
C          2.97600        0.39800       -1.29500
C          4.11800       -0.25100       -1.73100
S          4.68700        0.44700       -3.18200
C          3.39800        1.58800       -3.14100
N          2.56800        1.45300       -2.12800
C          3.20900        2.62800       -4.13000
S          4.28800        2.91400       -5.43700
C          3.34700        4.20700       -6.03700
C          2.23600        4.43900       -5.26000
C          2.16000        3.53300       -4.16100
H          4.61800       -1.08400       -1.25600
H          3.65600        4.73300       -6.92800
H          1.51200        5.21700       -5.46500
H          1.36900        3.53200       -3.41700
