51
24083-19-0.pdb
C          0.89000        0.10500       -0.08500
C          2.40800        0.09400       -0.07500
C          2.94100       -0.81100        1.03200
C          4.46600       -0.82100        1.04200
C          4.99400       -1.72700        2.14900
C          6.51700       -1.73300        2.15300
C          7.04800       -2.63100        3.26000
C          8.57400       -2.62600        3.27100
C          9.08800       -3.53400        4.37800
C         10.61500       -3.57600        4.40800
C         11.14800       -4.49200        5.51100
C         10.68500       -5.93200        5.32500
O         11.24600       -6.75100        6.34700
C         10.89100       -8.07200        6.29300
C         10.04900       -8.65600        5.33900
C          9.77700      -10.02500        5.38500
C         10.34600      -10.81100        6.38600
C         10.06600      -12.25900        6.43500
O          9.33900      -12.81000        5.62100
C         11.18100      -10.23800        7.34700
C         11.44700       -8.86800        7.29700
H          0.52100        0.75600       -0.88200
H          0.49700        0.47400        0.86800
H          0.49400       -0.90100       -0.25400
H          2.77900        1.11500        0.06800
H          2.77600       -0.25300       -1.04800
H          2.56800       -1.83200        0.88800
H          2.56900       -0.46500        2.00500
H          4.84300        0.19900        1.19000
H          4.84100       -1.16700        0.07200
H          4.61900       -2.74800        2.00300
H          4.62200       -1.38100        3.12100
H          6.89200       -0.71200        2.29600
H          6.89000       -2.08300        1.18300
H          6.68000       -3.65500        3.11400
H          6.67000       -2.28900        4.23200
H          8.94600       -1.60600        3.41900
H          8.95000       -2.97600        2.30200
H          8.68000       -4.53500        4.20400
H          8.71000       -3.19400        5.35000
H         11.00700       -2.56400        4.56500
H         10.99400       -3.91700        3.43700
H         10.83100       -4.12600        6.49600
H         12.24400       -4.45800        5.51700
H         11.01300       -6.28500        4.33900
H          9.59400       -5.98000        5.40100
H          9.58600       -8.07900        4.54400
H          9.12200      -10.47000        4.63600
H         10.55100      -12.82700        7.25000
H         11.63100      -10.83800        8.13200
H         12.09400       -8.41200        8.04400
