26
2408-37-9.pdb
C          1.10300        0.34300        0.46400
C          2.56900        0.11900        0.11300
C          3.09900        1.10800       -0.92500
C          2.70300        0.76200       -2.35600
C          3.12200       -0.66300       -2.71300
C          2.54900       -1.73100       -1.76300
C          1.04000       -1.93200       -1.97100
C          3.24500       -3.07400       -2.05500
C          2.82400       -1.32400       -0.30500
O          3.16400       -2.15300        0.54400
H          0.98900        1.25700        1.05600
H          0.70600       -0.49100        1.05300
H          0.47300        0.45600       -0.42100
H          3.14900        0.27800        1.03300
H          4.19500        1.12300       -0.86700
H          2.76400        2.12500       -0.68600
H          3.19500        1.46200       -3.04300
H          1.62600        0.89700       -2.49900
H          4.22000       -0.70700       -2.69100
H          2.82500       -0.87800       -3.74700
H          0.83700       -2.47100       -2.90300
H          0.49400       -0.98800       -2.03200
H          0.60100       -2.50700       -1.14700
H          3.09200       -3.38300       -3.09500
H          2.85700       -3.87300       -1.41200
H          4.32500       -3.01000       -1.87900
