46
24277-39-2.pdb
C          2.60500        1.70300        1.72200
C          2.44600        0.75500        0.52600
C          2.97200       -0.65400        0.83200
C          0.94200        0.63900        0.21600
O          3.07300        1.30800       -0.66600
C          4.41100        1.52000       -0.67500
O          5.18700        1.28400        0.24200
N          4.80600        2.05800       -1.86200
C          6.20500        2.37700       -2.15300
C          6.91900        1.15900       -2.76000
C          8.41200        1.39500       -3.00600
C          9.10200        0.18200       -3.58400
O         10.41500        0.40900       -3.82600
O          8.56700       -0.88500       -3.83400
C          6.21600        3.56800       -3.11300
O          5.30800        3.80000       -3.90400
O          7.37600        4.27900       -2.99900
C          7.63500        5.39800       -3.89000
C          6.61600        6.52200       -3.67600
C          9.02900        5.93100       -3.51000
C          7.69400        4.93400       -5.35100
H          2.08300        1.31900        2.60500
H          2.20200        2.69400        1.48500
H          3.65200        1.85200        2.00000
H          2.51200       -1.06100        1.73900
H          4.05500       -0.67800        0.97500
H          2.75600       -1.33700        0.00200
H          0.39300        0.20500        1.06000
H          0.76500        0.01200       -0.66500
H          0.50600        1.62000       -0.00500
H          4.09400        2.23000       -2.56300
H          6.68200        2.67900       -1.21500
H          6.43500        0.87400       -3.70300
H          6.80200        0.29800       -2.08800
H          8.90800        1.65700       -2.06500
H          8.55100        2.20400       -3.72800
H         10.71500        1.30600       -3.58600
H          6.60600        6.84000       -2.62700
H          5.59700        6.20800       -3.91500
H          6.84700        7.39300       -4.30000
H          9.05700        6.25600       -2.46400
H          9.32000        6.77800       -4.14100
H          9.79000        5.14900       -3.61300
H          6.73700        4.53800       -5.70000
H          8.42600        4.12700       -5.46900
H          7.97300        5.75500       -6.01900
