31
2430-16-2.pdb
O          0.99900       -0.05600        5.01000
C          2.41800       -0.04100        5.00300
C          2.91500       -0.75300        3.75200
C          4.44000       -0.76500        3.71500
C          4.99000       -1.49500        2.49200
C          6.52500       -1.49800        2.46200
C          7.12600       -2.22000        3.67100
C          8.63000       -2.18200        3.70000
C          9.29300       -1.10700        4.30800
C         10.68400       -1.09900        4.40300
C         11.42200       -2.16100        3.88100
C         10.77000       -3.22100        3.25400
C          9.37900       -3.23100        3.15800
H          0.71600        0.39900        5.82100
H          2.77800       -0.54400        5.90600
H          2.75900        0.99900        5.01900
H          2.51100       -0.26300        2.85900
H          2.52800       -1.78100        3.74000
H          4.78400       -1.24900        4.63500
H          4.81900        0.26400        3.73000
H          4.62100       -1.01100        1.58000
H          4.62200       -2.52800        2.47600
H          6.88800       -0.46300        2.41600
H          6.85900       -1.98500        1.53700
H          6.77900       -3.26000        3.69300
H          6.77900       -1.77300        4.60700
H          8.72600       -0.28100        4.73200
H         11.19000       -0.27200        4.89200
H         12.50400       -2.16300        3.96800
H         11.34600       -4.04800        2.84600
H          8.88200       -4.07000        2.67600
