26
24313-88-0.pdb
C          0.95000       -0.44200       -0.47100
O          2.30000       -0.05900       -0.22500
C          3.07300       -0.92400        0.51000
C          2.78200       -2.30000        0.54700
C          3.60100       -3.20200        1.22200
N          3.21600       -4.54100        1.35200
C          4.67200       -2.69700        1.94900
C          5.00000       -1.33100        1.93000
O          6.12200       -1.08400        2.68500
C          6.62700        0.23600        2.78700
C          4.20200       -0.42200        1.19900
O          4.59100        0.89100        1.25100
C          3.85700        1.90200        0.58200
H          0.42300        0.43200       -0.86600
H          0.44600       -0.74700        0.45200
H          0.89800       -1.22700       -1.23100
H          1.91900       -2.70100        0.03000
H          2.65400       -4.89000        0.58200
H          3.98400       -5.16600        1.58000
H          5.28300       -3.37100        2.54500
H          7.52600        0.19600        3.41100
H          5.91500        0.89500        3.29400
H          6.93400        0.62500        1.81100
H          4.31200        2.86300        0.84200
H          2.81900        1.94600        0.92500
H          3.93500        1.79000       -0.50400
