33
2432-11-3.pdb
O          2.25400       -0.05700       -0.23000
C          0.89100       -0.04600       -0.03500
C          0.18500       -1.27700        0.04500
C         -1.21800       -1.20300        0.08300
C         -1.88500        0.01900        0.06900
C         -1.15900        1.21000        0.06400
C          0.24800        1.21900        0.01400
C          0.98200        2.51800        0.00900
C          2.19700        2.68600        0.69900
C          2.89600        3.89800        0.67800
C          2.37800        4.98900       -0.01100
C          1.16400        4.86500       -0.67800
C          0.48100        3.64300       -0.67300
C          0.85400       -2.60800        0.12100
C          2.01100       -2.81000        0.90000
C          2.64900       -4.05300        0.95900
C          2.11300       -5.14000        0.28800
C          0.94900       -4.98600       -0.45900
C          0.33500       -3.72800       -0.54800
H          2.49200       -0.89000       -0.66600
H         -1.81800       -2.10900        0.14000
H         -2.97300        0.04700        0.09200
H         -1.71500        2.14500        0.10500
H          2.62400        1.86000        1.26400
H          3.84600        3.98300        1.20000
H          2.91900        5.93200       -0.02800
H          0.74800        5.71600       -1.21100
H         -0.45300        3.58100       -1.22700
H          2.43800       -1.98400        1.47400
H          3.55700       -4.16700        1.55200
H          2.59600       -6.11400        0.34600
H          0.51500       -5.83700       -0.97600
H         -0.56400       -3.64400       -1.15700
