17
2432-51-1.pdb
C          1.03900        0.10400       -0.02500
C          2.55900        0.10100       -0.01800
C          3.12900        0.20900       -1.43100
C          4.64500        0.20900       -1.43600
O          5.34400        0.13400       -0.43400
S          5.34200        0.33000       -3.05400
C          7.09700        0.29500       -2.62700
H          0.65500        0.02600        0.99800
H          0.64700       -0.74100       -0.59900
H          0.64900        1.02800       -0.46300
H          2.91600       -0.81900        0.46000
H          2.91900        0.93700        0.59400
H          2.77800        1.13700       -1.89700
H          2.77800       -0.63800       -2.03200
H          7.68900        0.36400       -3.54400
H          7.35300       -0.63900       -2.12000
H          7.35500        1.14300       -1.98600
