17
2434-53-9.pdb
C          1.04600       -0.03400        0.10400
N          2.50000       -0.09800        0.08900
C          3.19500       -1.30000        0.14900
C          4.53800       -1.26900        0.12100
C          5.27100        0.00000        0.05900
O          6.49300        0.02700        0.02300
N          4.50200        1.12000        0.04300
C          3.13900        1.14200        0.05000
O          2.54800        2.22100        0.02000
N          2.56700       -2.52600        0.24500
H          0.55800       -1.00900        0.10700
H          0.71100        0.51400       -0.78400
H          0.72400        0.52100        0.99200
H          5.15200       -2.15900        0.15800
H          4.97100        2.00900        0.01900
H          1.65800       -2.57300       -0.20000
H          3.14800       -3.32000       -0.00900
