16
24347-58-8.pdb
C          0.90600       -0.09700       -0.02400
C          2.42400       -0.08200        0.08700
O          2.95300        0.43300       -1.14100
C          2.94600        0.75100        1.28100
C          2.48800        0.22300        2.63200
O          4.38100        0.77400        1.27800
H          0.59800       -0.61700       -0.93700
H          0.51100        0.92200       -0.09200
H          0.44400       -0.59900        0.82900
H          2.79400       -1.10900        0.16300
H          2.97000        1.40400       -1.07500
H          2.62900        1.79400        1.17200
H          2.77900       -0.82500        2.76200
H          1.40400        0.30400        2.75400
H          2.96500        0.78500        3.44300
H          4.69000       -0.11100        1.01200
