23
2438-80-4.pdb
C          0.92100        0.22600        0.27800
C          2.42000        0.03100        0.04800
O          2.94000        0.95200       -0.92400
C          2.53300        0.68800       -2.26400
O          3.12300        1.66700       -3.11000
C          2.99300       -0.71500       -2.70700
O          4.43300       -0.72300       -2.77300
C          2.50100       -1.79200       -1.73200
O          1.08600       -2.03300       -1.80100
C          2.85100       -1.41300       -0.28400
O          2.28200       -2.34900        0.62900
H          0.72900        1.24400        0.63400
H          0.53400       -0.47300        1.02700
H          0.32700        0.10700       -0.63200
H          2.90100        0.29200        0.99600
H          1.44900        0.79700       -2.35800
H          3.98900        1.31400       -3.37100
H          2.63200       -0.91400       -3.72200
H          4.76800       -0.28800       -1.96400
H          2.98200       -2.75000       -1.96300
H          0.67800       -1.45700       -2.47100
H          3.94000       -1.47100       -0.17000
H          1.45600       -2.66400        0.20900
