21
24425-40-9.pdb
N          1.03800       -0.03300        0.25700
C          2.42500        0.03900        0.06500
C          3.19900       -1.13400        0.08000
C          4.59700       -1.08100        0.03300
C          5.21300        0.15900        0.01400
C          6.67600        0.44600        0.00500
C          6.74100        1.98200        0.00800
C          5.31400        2.54600        0.06900
C          4.45700        1.32600        0.04900
C          3.07000        1.27900        0.09400
H          0.62400       -0.89200       -0.08600
H          0.54300        0.79200       -0.06700
H          2.71300       -2.10400        0.13600
H          5.18100       -1.99600        0.03500
H          7.15300        0.03700       -0.89100
H          7.16000        0.03500        0.89700
H          7.25500        2.34300       -0.89100
H          7.33200        2.34100        0.85900
H          5.10800        3.18500       -0.79600
H          5.15800        3.11600        0.99000
H          2.49800        2.19900        0.16000
