22
2443-66-5.pdb
N          1.18000       -0.79700       -0.08600
N          2.56600       -0.63300       -0.27600
C          3.03800        0.25500       -1.24800
O          2.28600        0.83800       -2.02600
C          4.58100        0.40500       -1.20000
O          5.15900       -0.84800       -0.80400
C          5.19200        0.92500       -2.49200
C          4.87700        2.22600       -2.92300
C          5.39000        2.73500       -4.11800
C          6.23900        1.95600       -4.89700
C          6.58600        0.67500       -4.47500
C          6.07400        0.16600       -3.27800
H          0.96400       -1.79600       -0.08200
H          0.71500       -0.42400       -0.92500
H          3.22800       -0.96700        0.42900
H          4.81600        1.11600       -0.39800
H          4.90900       -1.48600       -1.49700
H          4.20400        2.85100       -2.33700
H          5.11800        3.73600       -4.44100
H          6.63100        2.34700       -5.83200
H          7.25800        0.07000       -5.07800
H          6.38300       -0.83100       -2.97500
