12
2444-37-3.pdb
C          1.07500       -0.13800        0.06300
S          2.86900        0.09700        0.05100
C          3.38500       -1.65800        0.14200
C          4.89600       -1.81300        0.15000
O          5.59600       -0.65800        0.09000
O          5.45100       -2.90300        0.20600
H          0.58900        0.84100        0.01300
H          0.75900       -0.63400        0.98400
H          0.75900       -0.72600       -0.80200
H          2.99500       -2.18800       -0.73200
H          2.99500       -2.09600        1.06500
H          4.98200        0.11000        0.05000
