28
2446-83-5.pdb
C          2.58000       -1.25300        1.05600
C          2.73700       -0.00600        0.19000
C          1.38500        0.40500       -0.38500
O          3.23100        1.08600        0.98900
C          4.58000        1.10800        1.21500
O          5.35600        0.27500        0.76500
N          4.89800        2.19100        2.00700
N          6.12000        2.23500        2.28700
C          6.44200        3.31900        3.07500
O          5.67600        4.18300        3.48800
O          7.78300        3.30600        3.34500
C          8.28300        4.38400        4.15900
C          8.03300        4.08500        5.63300
C          9.78100        4.50900        3.89600
H          2.17400       -2.08700        0.47500
H          1.91300       -1.05700        1.90300
H          3.54000       -1.56400        1.47700
H          3.41900       -0.20300       -0.64600
H          0.68000        0.66700        0.41200
H          0.94900       -0.40100       -0.98500
H          1.49000        1.29100       -1.01900
H          7.80500        5.32900        3.87300
H          8.47300        3.12300        5.91700
H          6.96100        4.01500        5.84400
H          8.45700        4.86700        6.27300
H         10.30100        3.57200        4.12400
H         10.22300        5.30900        4.50000
H          9.96900        4.72700        2.84000
