39
2448-45-5.pdb
O          1.37600       -0.14500       -0.17000
C          2.72400       -0.08900       -0.15100
O          3.40500       -1.09900       -0.32600
C          3.32200        1.31300        0.03900
C          2.85400        1.98100        1.34900
C          3.25500        1.25300        2.61400
C          4.49000        1.51200        3.22700
C          4.89300        0.78700        4.34900
C          4.04600       -0.17000        4.90000
C          2.79500       -0.40100        4.33100
C          2.40700        0.29500        3.18400
N          4.76900        1.16000       -0.01500
C          5.64000        2.18900        0.09300
O          5.33300        3.36600       -0.06300
O          6.86000        1.71600        0.39500
C          7.93300        2.59100        0.04700
C          8.72800        3.09700        1.22300
C          9.37400        2.20100        2.08600
C         10.15400        2.66900        3.14300
C         10.31400        4.04100        3.34100
C          9.68500        4.94100        2.48600
C          8.89500        4.47500        1.43100
H          0.91600        0.70000       -0.01200
H          3.02800        1.92500       -0.82500
H          1.76400        2.09500        1.34100
H          3.24200        3.00700        1.40300
H          5.15500        2.28200        2.83900
H          5.86800        0.97400        4.79100
H          4.35700       -0.72900        5.77900
H          2.12200       -1.12700        4.77900
H          1.43500        0.08200        2.74900
H          5.15100        0.21700       -0.00700
H          7.58100        3.42900       -0.56100
H          8.59700        2.00300       -0.59800
H          9.26800        1.13500        1.92400
H         10.64800        1.96500        3.80900
H         10.93000        4.40500        4.15800
H          9.80800        6.01200        2.63800
H          8.41400        5.19400        0.77300
