36
2449-05-0.pdb
O          1.19900        0.13000        0.12900
C          2.42500        0.14700        0.12300
O          3.18600       -0.84700       -0.42400
C          2.45900       -1.95700       -0.97100
C          2.89900       -2.21700       -2.39100
C          4.24700       -2.47200       -2.68400
C          4.64600       -2.75900       -3.99100
C          3.70500       -2.79600       -5.01800
C          2.36400       -2.54300       -4.74000
C          1.96100       -2.25600       -3.43400
N          3.15100        1.19100        0.65500
N          4.36800        0.98100        0.87200
C          4.95600        2.08600        1.45900
O          4.37800        3.10600        1.82700
O          6.29900        1.89800        1.57600
C          7.03800        2.99100        2.14400
C          7.86400        2.50400        3.31100
C          8.83200        1.50900        3.13100
C          9.62400        1.08600        4.20200
C          9.45500        1.65300        5.46400
C          8.49000        2.64100        5.65500
C          7.69800        3.06500        4.58600
H          1.37100       -1.82400       -0.93700
H          2.68600       -2.84200       -0.36500
H          4.99100       -2.45300       -1.89100
H          5.69300       -2.95700       -4.20600
H          4.01700       -3.02500       -6.03400
H          1.62800       -2.57500       -5.54000
H          0.90700       -2.06800       -3.23800
H          6.40600        3.83100        2.45500
H          7.71400        3.37800        1.37200
H          8.98000        1.06000        2.15200
H         10.37600        0.31500        4.05000
H         10.07200        1.32500        6.29600
H          8.35900        3.08500        6.63900
H          6.95400        3.84200        4.75700
