18
2454-39-9.pdb
N          1.04500        0.11600       -0.07200
C          2.40700       -0.04500       -0.04100
S          3.08400       -0.67300        1.35500
C          3.15600        0.35500       -1.27400
C          4.28300       -0.39500       -1.65900
C          4.99300       -0.08000       -2.81700
C          4.57100        0.97100       -3.62200
C          3.45000        1.71900       -3.25900
C          2.76400        1.46600       -2.06000
N          1.59000        2.21300       -1.80300
H          0.48500       -0.19200        0.71300
H          0.57100        0.41300       -0.92300
H          4.61300       -1.25000       -1.07100
H          5.86400       -0.66800       -3.09900
H          5.10800        1.20700       -4.53800
H          3.12200        2.51900       -3.91700
H          1.60500        3.13300       -2.23400
H          1.40700        2.28000       -0.80100
