30
2459-10-1.pdb
C          1.08800       -0.65000       -0.30700
O          2.51500       -0.71700       -0.35900
C          3.06600        0.10200       -1.28800
O          2.45800        0.84900       -2.03500
C          4.55000       -0.01100       -1.27800
C          5.24000       -0.87300       -0.42000
C          6.63900       -0.89900       -0.42500
C          7.37300       -0.06800       -1.29200
C          8.84500        0.04100       -1.11700
O          9.47300        1.06900       -1.32500
O          9.35300       -1.10700       -0.60300
C         10.75400       -1.05800       -0.30300
C          6.68000        0.75800       -2.19200
C          5.27300        0.78800       -2.17100
C          7.38300        1.54500       -3.23400
O          8.34600        1.13800       -3.86000
O          6.74400        2.72900       -3.40000
C          7.32700        3.61700       -4.35600
H          0.75200       -1.23100        0.55600
H          0.66000       -1.09000       -1.21300
H          0.74800        0.38200       -0.17900
H          4.70400       -1.51500        0.27700
H          7.14900       -1.55300        0.28100
H         10.95800       -1.77100        0.50100
H         11.07600       -0.06900        0.04000
H         11.31900       -1.35600       -1.19000
H          4.73300        1.44000       -2.85800
H          6.52300        4.19300       -4.82500
H          7.87800        3.09900       -5.14600
H          7.98700        4.30800       -3.82500
