35
24650-42-8.pdb
C          2.92900       -1.50500        0.15300
O          2.50900       -0.14400        0.15500
C          2.93400        0.63400       -0.97400
O          2.52500       -0.01600       -2.19100
C          1.12200       -0.19100       -2.34100
C          2.38000        2.13000       -0.89300
O          1.81600        2.69300       -1.84000
C          2.63400        2.96200        0.32500
C          2.87400        4.33200        0.13900
C          3.18700        5.15100        1.22600
C          3.25800        4.61000        2.50800
C          2.98100        3.26000        2.70700
C          2.65200        2.44200        1.62200
C          4.48100        0.74600       -1.01300
C          5.16700        0.86400       -2.23500
C          6.55900        0.98000       -2.26900
C          7.29100        0.99600       -1.08300
C          6.63500        0.89700        0.13700
C          5.24300        0.77700        0.17100
H          2.68100       -1.92700        1.13100
H          4.00700       -1.61700        0.01000
H          2.39900       -2.08200       -0.60800
H          0.94700       -0.65300       -3.31800
H          0.57200        0.75000       -2.32000
H          0.72200       -0.86400       -1.57800
H          2.82900        4.76700       -0.85800
H          3.38200        6.20900        1.07000
H          3.51900        5.24200        3.35300
H          3.02100        2.83900        3.70900
H          2.41600        1.40400        1.82600
H          4.61800        0.85700       -3.17600
H          7.07300        1.05600       -3.22300
H          8.37400        1.08600       -1.11200
H          7.19800        0.91100        1.06500
H          4.76300        0.68800        1.14300
