14
2466-76-4.pdb
C          1.29800        0.25600        0.56400
C          2.56700        0.00700       -0.19300
O          3.06000       -1.09300       -0.39700
N          3.19300        1.15000       -0.70500
C          2.81500        2.47500       -0.61100
C          3.77300        3.19100       -1.29000
N          4.73000        2.35900       -1.79700
C          4.36300        1.15100       -1.43400
H          0.95100       -0.68900        0.99300
H          0.52300        0.63300       -0.10900
H          1.46600        0.95300        1.38900
H          1.92600        2.79600       -0.08800
H          3.82100        4.26200       -1.43900
H          4.89200        0.23400       -1.66300
