26
24683-00-9.pdb
C          1.02800       -1.08300        0.00100
O          2.27700       -0.39700        0.00400
C          2.93700       -0.50000        1.20900
N          2.58300       -1.49600        2.05900
C          3.28700       -1.56000        3.20900
C          4.30400       -0.67100        3.51000
N          4.66400        0.32100        2.66900
C          3.97000        0.40000        1.49700
C          4.40300        1.48700        0.54500
C          3.34100        2.54800        0.19500
C          2.80100        3.28600        1.42200
C          3.93100        3.56200       -0.79300
H          0.50900       -0.82700       -0.92700
H          0.39300       -0.76100        0.83500
H          1.17400       -2.16900        0.01500
H          3.01500       -2.35900        3.89000
H          4.85800       -0.73500        4.43700
H          4.75700        1.00300       -0.37500
H          5.28000        1.99400        0.97000
H          2.49400        2.06100       -0.30200
H          3.54100        3.98400        1.82800
H          2.51100        2.59700        2.22100
H          1.91000        3.86300        1.15100
H          4.73500        4.14400       -0.33000
H          3.16200        4.26200       -1.13600
H          4.34400        3.05900       -1.67300
