25
2472-22-2.pdb
C          1.16100        0.20100        0.23600
O          2.54400        0.03300       -0.06900
C          3.08700        1.04300       -0.81600
C          4.13100        0.69200       -1.66800
C          4.72300        1.65400       -2.48800
C          4.28400        2.98700       -2.45400
C          4.92200        3.99900       -3.37400
C          4.16900        5.30600       -3.39500
O          4.04000        5.97700       -4.42200
C          3.68500        5.80200       -2.05900
C          2.74200        4.76800       -1.47200
C          3.27300        3.35600       -1.55200
C          2.68000        2.37600       -0.74300
H          0.81800       -0.69100        0.76600
H          0.57000        0.30100       -0.68200
H          0.99100        1.05200        0.90300
H          4.46900       -0.34200       -1.71400
H          5.52200        1.35600       -3.16400
H          4.95300        3.60200       -4.39500
H          5.94300        4.20600       -3.03500
H          3.17400        6.76300       -2.17700
H          4.56000        5.95900       -1.41800
H          1.78400        4.79700       -2.00700
H          2.54500        5.03000       -0.42500
H          1.89900        2.68200       -0.05700
