29
24731-17-7.pdb
C          3.46600        4.75600       -4.51000
C          2.84700        3.38200       -4.32100
O          3.13000        2.97200       -2.97800
C          4.31300        2.32200       -2.81200
O          4.92800        1.73100       -3.69100
C          4.81200        2.53400       -1.40800
C          6.34000        2.65900       -1.37700
C          6.84900        3.83800       -2.22300
C          8.36500        3.99800       -2.12000
C          8.79600        4.19500       -0.67200
C          8.32400        3.05000        0.21300
C          6.83400        2.84200        0.05100
O          6.09400        2.75200        1.02900
H          3.25400        5.15400       -5.50400
H          4.55200        4.71700       -4.37000
H          3.08200        5.45200       -3.75600
H          3.21700        2.66700       -5.06400
H          1.75900        3.44000       -4.43100
H          4.46700        1.69400       -0.79700
H          4.36200        3.45000       -1.00100
H          6.78300        1.72500       -1.74900
H          6.36500        4.76900       -1.90000
H          6.59300        3.69800       -3.27900
H          8.68400        4.85700       -2.72100
H          8.85800        3.11200       -2.53900
H          8.38100        5.14000       -0.30000
H          9.88700        4.27900       -0.61800
H          8.54700        3.27100        1.26100
H          8.82800        2.11400       -0.05300
