26
2478-38-8.pdb
C          1.06100       -0.06900        0.08700
O          2.48200       -0.09300        0.07700
C          3.13400        1.11000        0.06000
C          2.51300        2.35900        0.05400
C          3.27900        3.53600        0.04500
C          4.67900        3.47200        0.01500
C          5.31300        2.23100        0.02300
O          6.66900        2.02000        0.00500
C          7.50100        3.17500       -0.01800
C          4.53300        1.06300        0.05000
O          5.17000       -0.15500        0.05900
C          2.55000        4.83600        0.04900
C          3.19100        6.05800        0.65200
O          1.41200        4.88600       -0.41800
H          0.70900       -1.10500        0.08600
H          0.66700        0.41600       -0.81200
H          0.68200        0.41100        0.99500
H          1.43100        2.44900        0.05900
H          5.25700        4.38600       -0.03500
H          8.54200        2.83800       -0.02700
H          7.35500        3.78200        0.88100
H          7.33300        3.76300       -0.92600
H          6.12300        0.04800        0.03700
H          4.14400        5.84600        1.13900
H          2.52000        6.45800        1.41900
H          3.34600        6.80700       -0.12900
