29
2480-28-6.pdb
C          4.87200        0.80000        0.75700
N          4.35800        0.81500       -0.61200
C          2.87500        1.03500       -0.66700
C          2.43300        2.38300       -0.06900
C          0.92000        2.65200       -0.13600
C          0.07800        1.62100        0.61600
N         -1.32900        1.96200        0.43900
C         -2.21200        1.19800        0.96800
N         -2.03600        0.10200        1.74000
N         -3.51500        1.43000        0.71900
C          2.48700        0.97900       -2.16100
O          3.51200        1.40000       -2.95200
O          1.41200        0.60900       -2.60000
H          5.86400        0.33400        0.75900
H          4.23500        0.22100        1.43200
H          4.99300        1.81600        1.14300
H          4.52400       -0.12400       -0.99700
H          2.39400        0.18900       -0.16600
H          2.94300        3.20200       -0.59400
H          2.73900        2.44900        0.98200
H          0.59400        2.70900       -1.18100
H          0.72500        3.64600        0.28700
H          0.35300        1.63400        1.67800
H          0.26200        0.61900        0.21600
H         -1.11300       -0.03000        2.12700
H         -2.77800       -0.12800        2.38200
H         -3.64900        2.31700        0.24400
H         -4.17300        1.27900        1.46800
H          4.27200        1.58600       -2.35000
