38
2481-94-9.pdb
C          2.03800        0.39100       -1.32400
C          2.56400        0.07700        0.06900
N          3.04700        1.27400        0.76200
C          2.06400        2.17800        1.36600
C          1.99900        3.49800        0.60800
C          4.40600        1.52500        0.87000
C          5.28400        1.27000       -0.19300
C          6.65300        1.54600       -0.10400
C          7.20500        2.08200        1.06400
C          6.35000        2.31500        2.14000
C          4.97600        2.05000        2.03900
N          8.58200        2.33300        1.23000
N          9.13000        2.67800        0.16200
C         10.53000        2.81600        0.28100
C         11.31100        2.10200        1.20000
C         12.70100        2.24500        1.22500
C         13.32900        3.10000        0.32200
C         12.56900        3.81200       -0.60400
C         11.17900        3.66700       -0.62200
H          1.67300       -0.52500       -1.80000
H          2.81300        0.81800       -1.96500
H          1.20700        1.10200       -1.28600
H          3.34700       -0.69000        0.00600
H          1.75800       -0.37900        0.65800
H          2.27900        2.36100        2.42400
H          1.06800        1.71900        1.34600
H          2.96300        4.01700        0.61700
H          1.25600        4.16000        1.06200
H          1.71700        3.33900       -0.43800
H          4.91000        0.87800       -1.13300
H          7.28700        1.33800       -0.96100
H          6.75200        2.70100        3.07400
H          4.36400        2.22600        2.91900
H         10.83900        1.41700        1.90100
H         13.29000        1.68300        1.94400
H         14.41000        3.20600        0.33600
H         13.05500        4.47600       -1.31400
H         10.59200        4.22000       -1.35300
