13
2483-57-0.pdb
C          1.09800       -0.08500        0.03200
O          2.52700       -0.07800       -0.03000
C          3.04000        0.17000       -1.26800
O          2.37000        0.39000       -2.26800
C          4.52800        0.07900       -1.25500
N          5.02700        1.44400       -0.98800
O          5.30400        2.15100       -1.96500
O          5.17500        1.77000        0.19700
H          0.80600       -0.26300        1.07000
H          0.69900       -0.89600       -0.58400
H          0.68900        0.88000       -0.28400
H          4.90600       -0.25900       -2.22300
H          4.89000       -0.59500       -0.47400
