21
24849-48-7.pdb
O          2.23400        0.01600        0.01800
C          0.87000       -0.01500        0.00700
C          0.17300       -1.22100       -0.00700
C         -1.22700       -1.21200       -0.02100
C         -1.92200        0.00500       -0.02900
C         -1.20200        1.20900        0.00200
C          0.19400        1.19800        0.01400
C         -3.41000        0.08800       -0.04000
O         -3.95800        1.06600        0.46200
C         -4.16400       -1.00600       -0.70500
C         -5.50500       -1.00800       -0.74300
C         -6.26200       -2.12900       -1.44400
O         -5.55500       -3.05500       -1.93300
O         -7.51700       -1.98800       -1.43800
H          2.55900       -0.89800       -0.01400
H          0.69400       -2.17400       -0.00100
H         -1.75600       -2.16100       -0.00700
H         -1.73300        2.15900        0.01000
H          0.74600        2.13300        0.03100
H         -3.61600       -1.80300       -1.19300
H         -6.08800       -0.21400       -0.28800
