20
2486-70-6.pdb
C          1.80200        1.53300        0.06100
C          0.53800        0.71900        0.03200
C         -0.70100        1.38600        0.00100
C         -1.90300        0.67200       -0.00300
C         -1.87500       -0.72500        0.00900
C         -0.64600       -1.39100        0.05000
C          0.56700       -0.68700        0.01700
N          1.76200       -1.39700        0.19100
C         -3.17300        1.44300       -0.04800
O         -4.21100        0.83900        0.56400
O         -3.25600        2.54600       -0.56300
H          1.59100        2.60800        0.05500
H          2.41200        1.31500       -0.82200
H          2.37700        1.31300        0.96600
H         -0.73000        2.47500       -0.01300
H         -2.78500       -1.31500       -0.03300
H         -0.63900       -2.47800        0.09400
H          1.72800       -2.35600       -0.14200
H          2.58800       -0.91300       -0.14500
H         -3.97800        0.06000        1.10100
