21
2486-69-3.pdb
C          1.01300        0.06900       -0.00600
O          2.43600        0.00700       -0.04700
C          2.99700       -0.81700       -0.99200
C          4.17000       -1.45400       -0.55200
C          4.88100       -2.30400       -1.40600
C          4.41500       -2.52300       -2.70200
C          3.25300       -1.88700       -3.14300
C          2.56700       -0.97800       -2.32300
N          1.41800       -0.35900       -2.84500
C          6.16100       -2.95000       -1.01200
O          6.22900       -3.29100        0.28800
O          7.05000       -3.19100       -1.81400
H          0.72600        0.36900        1.00700
H          0.54000       -0.89500       -0.21500
H          0.64400        0.85200       -0.67300
H          4.52700       -1.24200        0.45300
H          4.96300       -3.17400       -3.38200
H          2.91600       -2.07100       -4.16100
H          1.35100       -0.41900       -3.85700
H          1.35400        0.61000       -2.54500
H          5.39500       -3.20700        0.78400
