20
2486-75-1.pdb
C          2.53400       -1.14400        0.01400
C          1.27900       -0.31200        0.01000
C          0.03700       -0.97700       -0.03100
C         -1.17200       -0.27800        0.01300
N         -2.38400       -0.95600       -0.15800
C         -1.13700        1.11500        0.00400
C          0.08200        1.79900        0.05200
C          1.29900        1.09600        0.04200
C          2.59100        1.85000        0.09500
O          2.55900        3.03200       -0.56000
O          3.59100        1.44600        0.65600
H          2.30400       -2.21400       -0.04900
H          3.09100       -0.99500        0.94400
H          3.16200       -0.89500       -0.84600
H          0.01600       -2.06300       -0.09000
H         -2.36400       -1.92000        0.16100
H         -3.19300       -0.45500        0.19700
H         -2.06400        1.68200       -0.02300
H          0.05500        2.88400        0.11200
H          1.77000        3.18600       -1.11100
