15
2487-40-3.pdb
O          0.89300        0.01800       -0.04300
C          2.11800       -0.02500       -0.04900
N          2.91100        1.10800       -0.05200
C          4.29300        1.13600       -0.06100
S          5.11300        2.58500       -0.06800
N          4.95400       -0.06700       -0.06300
C          4.24600       -1.23300       -0.05900
N          4.74900       -2.49000       -0.06100
C          3.67800       -3.26300       -0.05600
N          2.51500       -2.53200       -0.05200
C          2.88400       -1.22100       -0.05300
H          2.42000        1.99100       -0.05000
H          5.96500       -0.11500       -0.06900
H          3.67600       -4.34600       -0.05600
H          1.56900       -2.89100       -0.04800
