25
2490-97-3.pdb
C          1.03300       -0.16700        0.62200
C          2.52200       -0.33500        0.55600
O          3.04400       -1.40000        0.24600
N          3.23900        0.78200        0.92000
C          4.70900        0.75700        0.95700
C          5.27600        1.26700       -0.37400
C          6.79900        1.36500       -0.44500
C          7.48200        0.04300       -0.18100
N          8.30000       -0.40400       -1.17200
O          7.32900       -0.57700        0.87200
C          5.18900        1.61100        2.12700
O          6.14000        1.01800        2.88300
O          4.77300        2.74100        2.35600
H          0.57200       -0.82700       -0.11800
H          0.74000        0.86100        0.39300
H          0.68000       -0.43800        1.62100
H          2.77700        1.65200        1.15400
H          4.99200       -0.28200        1.13000
H          4.86400        2.26300       -0.58600
H          4.92100        0.61300       -1.18700
H          7.18400        2.08700        0.28400
H          7.08200        1.74000       -1.43500
H          8.53800        0.15200       -1.98600
H          8.79800       -1.27000       -1.02700
H          6.43400        0.13900        2.54000
