19
24949-35-7.pdb
C          1.01100        0.01100       -0.09800
S          2.80100       -0.07600        0.12600
C          3.33900        0.60400       -1.48000
C          4.86600        0.61900       -1.51400
C          5.41200        1.17500       -2.82900
S          7.23700        1.14600       -2.76000
C          7.61000        1.83100       -4.38900
H          0.52200       -0.37200        0.80100
H          0.70100       -0.60200       -0.94800
H          0.69300        1.04600       -0.25100
H          2.94200        1.61900       -1.59200
H          2.94300       -0.02200       -2.28700
H          5.24100       -0.40300       -1.37000
H          5.24000        1.22900       -0.68100
H          5.07400        2.20600       -2.98000
H          5.07400        0.56400       -3.67300
H          8.69600        1.88300       -4.51300
H          7.20300        2.84100       -4.48200
H          7.20200        1.19300       -5.17600
