25
2495-37-6.pdb
C          2.25400        2.21500       -0.26400
C          3.17500        1.04300       -0.08800
C          3.34900        0.44500        1.10100
C          3.87600        0.60100       -1.32800
O          3.70100        1.15400       -2.40600
O          4.69500       -0.45200       -1.10200
C          5.41100       -0.93300       -2.24300
C          6.89400       -0.84900       -1.98600
C          7.57900       -1.91400       -1.38700
C          8.96200       -1.85100       -1.20400
C          9.67000       -0.72200       -1.61300
C          8.99400        0.35600       -2.18200
C          7.61000        0.29900       -2.35600
H          1.76900        2.49600        0.67700
H          1.46400        1.98000       -0.98500
H          2.80700        3.08900       -0.62300
H          2.82500        0.79400        1.98400
H          4.01600       -0.40100        1.23500
H          5.17100       -0.39900       -3.17100
H          5.12100       -1.97700       -2.41200
H          7.04100       -2.80500       -1.07100
H          9.48800       -2.68600       -0.75100
H         10.74900       -0.68100       -1.48800
H          9.54500        1.23800       -2.49800
H          7.09300        1.14900       -2.79800
