15
24964-64-5.pdb
O          2.70800       -0.33400       -1.03100
C          2.32500        0.05200        0.06600
C          3.07500        1.06000        0.83900
C          2.59800        1.46400        2.09000
C          3.30900        2.41300        2.82600
C          4.48800        2.95800        2.31000
C          4.96200        2.55700        1.05600
C          4.25500        1.60300        0.31900
C          6.16800        3.12200        0.52600
N          7.14400        3.58300        0.10000
H          1.40100       -0.33900        0.52400
H          1.68000        1.04900        2.50000
H          2.94500        2.73100        3.80100
H          5.03400        3.69900        2.89400
H          4.61500        1.28200       -0.65800
