27
2499-95-8.pdb
C          0.93600        0.06000       -0.08000
C          2.45600        0.04000       -0.06800
C          2.99100       -0.98700        0.92800
C          4.51900       -1.00900        0.94100
C          5.04500       -2.03700        1.93900
C          6.57100       -2.05300        1.98200
O          7.03100       -3.00500        2.95400
C          7.03600       -2.54500        4.23000
O          6.69100       -1.43500        4.60600
C          7.52900       -3.61600        5.11900
C          7.58800       -3.40800        6.44200
H          0.57100        0.79900       -0.79900
H          0.54000        0.32100        0.90700
H          0.53400       -0.91800       -0.36300
H          2.82700        1.03900        0.19000
H          2.82100       -0.19200       -1.07500
H          2.61100       -1.98300        0.66900
H          2.61800       -0.75100        1.93300
H          4.89800       -0.01400        1.20600
H          4.89600       -1.24200       -0.06200
H          4.68100       -3.04000        1.68300
H          4.64400       -1.82200        2.93700
H          6.98300       -1.05800        2.19100
H          6.97100       -2.36400        1.01100
H          7.83300       -4.55200        4.67000
H          7.27500       -2.46200        6.87800
H          7.94700       -4.17600        7.11500
