19
24994-04-5.pdb
C          2.49500       -0.00400       -0.00800
C          0.99600        0.01200        0.00700
C          0.28900        1.21400       -0.12200
C         -1.10900        1.21500       -0.13600
C         -1.81500        0.01300       -0.01600
C         -1.11300       -1.19100        0.12000
C          0.28500       -1.19000        0.12500
C         -3.32800        0.01200       -0.03900
N         -4.08900        1.12700       -0.19300
N         -5.36600        0.67900       -0.17200
N         -5.36900       -0.65800        0.00500
N         -4.09300       -1.10300        0.08600
H          2.90700        1.01000        0.02300
H          2.85500       -0.49000       -0.92000
H          2.87800       -0.54400        0.86400
H          0.81500        2.16000       -0.21700
H         -1.64800        2.15500       -0.24200
H         -1.65400       -2.13000        0.21500
H          0.81200       -2.13500        0.21900
