12
251-41-2.pdb
S         -2.01300        0.59700        0.00100
C         -1.98800       -1.11700       -0.00000
C         -0.72300       -1.65900        0.00100
C          0.26800       -0.63100       -0.00000
S          2.01300       -0.59800       -0.00300
C          1.98700        1.11600       -0.00100
C          0.72200        1.65700        0.00500
C         -0.26800        0.62900        0.00200
H         -2.92700       -1.65300       -0.00100
H         -0.51400       -2.72100        0.00100
H          2.92600        1.65300       -0.00300
H          0.51200        2.71900        0.00900
