13
2510-23-8.pdb
C          1.08400       -0.04500       -0.01000
C          2.28400       -0.05200       -0.02700
C          3.71200       -0.05400       -0.07600
C          4.42700        1.13900       -0.14500
C          5.81700        1.10000       -0.23000
C          6.44200       -0.13800       -0.24100
N          5.78100       -1.31300       -0.16300
C          4.42900       -1.24400       -0.08100
H          0.01800       -0.03700       -0.00800
H          3.91000        2.09500       -0.13900
H          6.39800        2.01300       -0.29300
H          7.52300       -0.21800       -0.31700
H          3.92700       -2.20600       -0.02400
