28
25115-74-6.pdb
O          0.93100        0.15800        0.17700
C          2.14000        0.10300       -0.04400
C          2.97600        1.35900       -0.14500
C          4.04800        1.23800       -1.22500
C          4.92200       -0.04200       -1.08900
C          3.92700       -1.24200       -1.16200
C          2.87000       -1.21800       -0.06300
C          5.80800       -0.13700       -2.32100
N          6.54200       -0.21500       -3.34200
C          5.82800       -0.06100        0.16100
C          6.20700       -1.26900        0.78500
C          7.05000       -1.28700        1.90200
C          7.55500       -0.10200        2.41600
C          7.22500        1.10400        1.80600
C          6.38000        1.12200        0.69000
H          3.41500        1.55700        0.83800
H          2.31200        2.19500       -0.39300
H          4.65600        2.15000       -1.24300
H          3.54300        1.22100       -2.20300
H          4.44800       -2.20700       -1.15300
H          3.40800       -1.21500       -2.13300
H          3.30700       -1.38400        0.92600
H          2.14300       -2.01600       -0.24800
H          5.86900       -2.23300        0.41400
H          7.32000       -2.23500        2.36200
H          8.21700       -0.11400        3.27900
H          7.63500        2.03400        2.19100
H          6.18300        2.09300        0.24000
