19
2517-43-3.pdb
C          1.05900        0.21500        0.05400
O          2.47000        0.13900       -0.10300
C          2.90600       -0.85800       -1.03200
C          2.44400       -0.53900       -2.45300
C          4.43900       -0.90200       -0.98400
C          4.97000       -1.27600        0.39500
O          6.39400       -1.30500        0.37500
H          0.84800        0.82200        0.93800
H          0.62100       -0.77800        0.19900
H          0.60700        0.70900       -0.80900
H          2.50900       -1.83400       -0.72500
H          2.74300        0.47400       -2.74300
H          1.35400       -0.58500       -2.53400
H          2.86000       -1.25100       -3.17500
H          4.85300        0.07800       -1.25700
H          4.82300       -1.61400       -1.72500
H          4.61200       -2.26400        0.70300
H          4.66400       -0.54800        1.15300
H          6.66800       -1.95900       -0.28900
