33
25173-72-2.pdb
C          0.93400       -0.14500        0.00500
O          2.31500        0.16100       -0.13800
C          3.00500        0.53800        0.98400
C          2.58900        0.17700        2.27800
C          3.36300        0.47100        3.40800
C          2.93500        0.08800        4.80800
C          2.10600       -1.18700        4.96100
C          2.76600       -2.42300        4.39900
O          3.91100       -2.76800        5.01800
O          2.28100       -3.09000        3.49600
C          4.55900        1.17600        3.23200
C          5.00300        1.53200        1.95300
O          6.17400        2.22200        1.74000
C          7.22900        1.93700        2.65100
C          4.21700        1.23500        0.82100
O          4.76200        1.62000       -0.38300
C          3.85600        1.98000       -1.41700
H          0.53600       -0.35800       -0.99200
H          0.38700        0.71200        0.41200
H          0.77500       -1.04400        0.61100
H          1.66500       -0.37400        2.40900
H          2.35900        0.92700        5.21800
H          3.83100       -0.00800        5.43400
H          1.13300       -1.07300        4.47000
H          1.88800       -1.37300        6.01900
H          4.18000       -2.18200        5.74800
H          5.14100        1.45400        4.10600
H          8.16400        2.28700        2.20300
H          7.33000        0.86200        2.83700
H          7.08600        2.48400        3.58800
H          4.39500        2.61900       -2.12400
H          3.00200        2.55400       -1.04200
H          3.53300        1.09500       -1.97300
