20
2524-52-9.pdb
C          6.40800       -0.67100       -0.52300
C          5.35000        0.41200       -0.64700
O          5.27100        1.09600        0.60800
C          4.45200        0.53500        1.53400
O          3.57600       -0.28900        1.31700
C          4.86700        0.96700        2.90200
C          4.21200        0.42200        4.00100
C          4.69000        0.72800        5.27100
C          5.79600        1.56200        5.40200
C          6.37900        2.07100        4.25400
N          5.94200        1.79600        3.00900
H          6.55300       -1.19600       -1.47000
H          6.13000       -1.40000        0.24600
H          7.36200       -0.23500       -0.20700
H          4.38200        0.00100       -0.95300
H          5.65300        1.14400       -1.40300
H          3.36800       -0.24900        3.87100
H          4.21400        0.30400        6.15100
H          6.20200        1.80200        6.37900
H          7.24700        2.72200        4.30500
