19
25309-65-3.pdb
C          3.68700       -0.13100       -0.84100
C          2.52200        0.01800        0.12400
C          2.91000        0.73700        1.39200
C          2.84500        2.13500        1.46400
C          3.16300        2.79900        2.65100
C          3.55600        2.07200        3.77900
C          3.65400        0.68000        3.70500
C          3.33600        0.01700        2.51600
C          3.84100        2.75000        5.01000
N          4.05900        3.30000        6.00900
H          3.36000       -0.65000       -1.74800
H          4.50200       -0.71000       -0.39400
H          4.08800        0.84500       -1.13500
H          2.12000       -0.97200        0.37200
H          1.70400        0.56000       -0.36500
H          2.53300        2.71400        0.59700
H          3.08900        3.88400        2.69200
H          3.96700        0.10100        4.57200
H          3.41100       -1.06800        2.47700
