20
25343-91-3.pdb
C          0.97000       -0.00900       -0.00800
N          2.42200       -0.05200       -0.16300
C          2.93700        0.96700       -1.08900
C          2.58900        0.74600       -2.55100
S          3.18900       -0.83100       -3.09400
O          2.51500       -1.15600       -4.33800
O          4.63800       -0.82500       -3.02500
C          2.56800       -1.92300       -1.84400
C          2.93200       -1.39700       -0.46700
H          0.65300        0.98100        0.33900
H          0.64400       -0.72700        0.75200
H          0.43300       -0.23100       -0.93500
H          4.02900        1.01300       -0.97700
H          2.57600        1.95400       -0.77800
H          3.05000        1.50900       -3.18500
H          1.50800        0.76800       -2.72200
H          3.00900       -2.90900       -2.01800
H          1.48500       -2.00500       -1.97900
H          4.02400       -1.38600       -0.35500
H          2.57400       -2.10100        0.29500
