50
25354-97-6.pdb
C          0.94500       -0.69200       -0.66400
C          2.45300       -0.58100       -0.51500
C          3.04100        0.43800       -1.48800
C          4.55900        0.53800       -1.32200
C          5.14300        1.56100       -2.29000
C          6.66300        1.69800       -2.15300
C          7.16600        2.76900       -3.12700
C          8.68600        2.95100       -3.09800
C          9.19000        3.98800       -4.13000
C          8.61600        5.40800       -3.96500
C          8.93800        6.07300       -2.61800
C          8.31700        7.46500       -2.44000
C          6.79300        7.45400       -2.54500
C          6.18200        8.83500       -2.32400
C          4.66800        8.77300       -2.47200
C         10.70800        4.03600       -4.13200
O         11.23400        4.43300       -5.31300
O         11.41400        3.77000       -3.16800
H          0.55000       -1.43000        0.04100
H          0.67300       -1.01000       -1.67600
H          0.45800        0.26700       -0.46100
H          2.90600       -1.56300       -0.69000
H          2.69200       -0.29000        0.51400
H          2.58400        1.42100       -1.31400
H          2.79900        0.14900       -2.51800
H          5.01400       -0.44400       -1.50000
H          4.79700        0.82600       -0.29100
H          4.67400        2.53700       -2.11000
H          4.89700        1.27100       -3.31800
H          7.14500        0.73500       -2.35800
H          6.92000        1.97900       -1.12400
H          6.67600        3.71400       -2.87200
H          6.85400        2.50300       -4.14400
H          9.16400        1.98500       -3.31200
H          9.00600        3.22600       -2.08700
H          8.88400        3.61200       -5.11900
H          7.53300        5.35500       -4.11500
H          8.99600        6.05200       -4.76900
H         10.02500        6.17700       -2.51800
H          8.60300        5.43700       -1.79300
H          8.74100        8.15800       -3.17700
H          8.60600        7.84400       -1.45000
H          6.38300        6.74700       -1.81400
H          6.49100        7.10700       -3.53900
H          6.58700        9.54500       -3.05500
H          6.43800        9.20900       -1.32700
H          4.38700        8.41000       -3.46700
H          4.22900        9.76700       -2.33600
H          4.23100        8.10100       -1.72800
H         10.57200        4.62200       -6.00400
