24
25395-31-7.pdb
C          5.09100       -3.35000        1.62500
C          4.44700       -2.64900        0.47000
O          3.45200       -3.04900       -0.11800
O          5.14700       -1.52500        0.15700
C          4.63300       -0.76800       -0.95500
C          5.13000       -1.35400       -2.28500
C          4.54200       -0.62100       -3.49700
O          4.90400       -1.29000       -4.70600
O          6.58500       -1.42600       -2.36300
C          7.31300       -0.28500       -2.25300
C          8.78000       -0.57600       -2.33500
O          6.85100        0.84200       -2.15200
H          4.45700       -4.18200        1.94300
H          5.20100       -2.66100        2.46600
H          6.06400       -3.74200        1.31900
H          4.97200        0.26000       -0.80700
H          3.53700       -0.73500       -0.92100
H          4.82100       -2.40400       -2.34600
H          4.89100        0.41200       -3.57400
H          3.44900       -0.60500       -3.44400
H          5.86500       -1.44300       -4.67200
H          8.98900       -1.60900       -2.04400
H          9.31100        0.08000       -1.64000
H          9.12800       -0.40300       -3.35600
