28
25462-23-1.pdb
C          0.97300        0.00300        0.09200
C          2.49200        0.02400        0.06800
C          3.04500        1.44300        0.21700
C          4.57500        1.44100        0.16900
C          5.14900        2.85300        0.31200
C          6.69500        2.89300        0.30200
C          7.30900        2.33900       -0.99600
O          6.93400        3.11900       -2.12500
C          7.19300        4.32700        0.54900
O          6.74300        5.22800       -0.45400
H          0.60800       -1.02300       -0.01000
H          0.55900        0.59400       -0.73200
H          0.58800        0.40800        1.03400
H          2.84100       -0.41400       -0.87400
H          2.87300       -0.60900        0.88000
H          2.70300        1.87600        1.16400
H          2.65400        2.07500       -0.58900
H          4.89100        1.00000       -0.78100
H          4.96800        0.80500        0.97200
H          4.79700        3.28000        1.26100
H          4.74300        3.49400       -0.48200
H          7.05600        2.26900        1.13000
H          7.02900        1.29700       -1.17600
H          8.40200        2.36500       -0.93000
H          5.97600        2.99900       -2.25800
H          8.28700        4.36000        0.57300
H          6.83000        4.69600        1.51600
H          7.01600        4.84400       -1.31300
