30
25519-80-6.pdb
O          2.25100       -0.06500        1.07800
C          2.44300        0.21200       -0.10400
C          3.22300       -0.75200       -0.99700
C          3.22300       -2.16900       -0.38900
C          4.12600       -2.30800        0.83300
N          5.49900       -1.83400        0.48800
C          5.54800       -0.42600        0.01000
C          4.66700       -0.27500       -1.22400
C          1.99900        1.54900       -0.61900
C          1.36000        2.41900        0.27900
C          1.08300        3.73500       -0.09300
C          1.43500        4.18700       -1.36100
C          2.01000        3.31100       -2.27900
C          2.27400        1.98800       -1.91700
H          2.69400       -0.81300       -1.95500
H          3.56400       -2.87700       -1.15600
H          2.20400       -2.47000       -0.11900
H          4.22300       -3.35600        1.13400
H          3.79600       -1.73300        1.70200
H          5.91900       -2.46300       -0.21000
H          6.08900       -1.91700        1.32700
H          6.59300       -0.21100       -0.23000
H          5.23100        0.21900        0.83600
H          5.10100       -0.86100       -2.04400
H          4.70100        0.77200       -1.54300
H          1.09200        2.08700        1.27900
H          0.60800        4.41100        0.61400
H          1.25400        5.22400       -1.63800
H          2.26300        3.66600       -3.27700
H          2.71600        1.34000       -2.66900
