28
2553-04-0.pdb
C          0.97200       -0.50300       -0.16500
O          2.32900       -0.11600        0.00900
C          3.02900       -0.71100        1.02600
C          2.70400       -1.96800        1.55200
C          3.53200       -2.57400        2.50200
C          4.70000       -1.94300        2.91900
C          5.02000       -0.68000        2.42200
C          4.17000       -0.04500        1.50200
C          4.53500        1.34200        1.10000
O          5.72100        1.61800        0.93300
C          3.51100        2.41900        0.96700
C          3.79800        3.51800        0.14800
C          2.85700        4.53700       -0.01800
C          1.62600        4.46500        0.63500
C          1.34400        3.38900        1.47300
C          2.29100        2.37900        1.65600
H          0.54500        0.12700       -0.95100
H          0.39700       -0.33400        0.75100
H          0.89000       -1.54200       -0.49900
H          1.82700       -2.51500        1.22500
H          3.27300       -3.55200        2.89800
H          5.36000       -2.43000        3.63200
H          5.93100       -0.18600        2.75600
H          4.75400        3.58000       -0.36700
H          3.08400        5.38500       -0.65900
H          0.89000        5.25200        0.49400
H          0.38700        3.33400        1.98500
H          2.05400        1.56200        2.33200
