25
2555-49-9.pdb
C          2.36700       -1.13500        1.77800
C          2.54900       -0.53200        0.39700
O          3.14500       -1.52800       -0.44500
C          4.51200       -1.56400       -0.41500
O          5.22200       -0.69000        0.06500
C          4.98400       -2.89000       -0.98400
O          6.39700       -2.96900       -0.86200
C          6.99800       -4.12700       -1.26000
C          6.35600       -5.27000       -1.73600
C          7.10800       -6.38600       -2.11800
C          8.49900       -6.36000       -2.02000
C          9.14200       -5.22400       -1.53800
C          8.39200       -4.11200       -1.15800
H          1.90900       -0.42100        2.46700
H          3.32900       -1.45800        2.19200
H          1.73700       -2.02900        1.72000
H          3.14400        0.38800        0.43500
H          1.57600       -0.27200       -0.03200
H          4.68700       -2.94300       -2.03600
H          4.51000       -3.67900       -0.38800
H          5.27700       -5.33100       -1.82300
H          6.60900       -7.27500       -2.49200
H          9.08000       -7.23000       -2.31900
H         10.22400       -5.19900       -1.45700
H          8.89500       -3.22400       -0.77900
