21
25581-41-3.pdb
C          1.01300       -0.10600        0.22500
C          2.52600       -0.05800        0.02500
C          3.21700        0.45100        1.28300
O          2.82400        0.82200       -1.06100
C          3.11200       -0.00600       -2.18500
C          1.95500       -0.04900       -3.15900
O          1.55000       -1.40900       -3.30100
C          2.26100       -2.20700       -2.46000
O          2.08800       -3.41300       -2.37100
C          3.26600       -1.40400       -1.66600
O          3.01700       -1.36300       -0.27100
H          0.60600        0.89800        0.38400
H          0.74500       -0.74400        1.07300
H          0.51000       -0.52000       -0.65400
H          2.91100        1.47500        1.52100
H          4.30400        0.45800        1.14700
H          3.00400       -0.19600        2.14000
H          4.01600        0.37300       -2.67200
H          2.25900        0.31000       -4.14700
H          1.09600        0.54500       -2.82900
H          4.26800       -1.80200       -1.85900
