33
2562-71-2.pdb
C          1.42500        0.42700       -0.69400
N          2.56200       -0.26100       -0.08800
C          2.96700        0.15300        1.24600
C          3.19900       -1.29700       -0.75900
C          2.78200       -1.69900       -2.03400
C          3.39800       -2.74500       -2.72500
C          4.47800       -3.44300       -2.18200
C          4.92500       -3.06700       -0.91600
C          4.28900       -2.01400       -0.22200
C          5.04400       -4.51700       -2.99900
N          6.35800       -4.93400       -3.00900
C          6.53700       -5.77800       -4.08300
C          7.65700       -6.40900       -4.62900
C          7.44400       -7.17700       -5.78700
C          6.17100       -7.31600       -6.35000
C          5.06800       -6.68600       -5.77400
C          5.26800       -5.90000       -4.63100
N          4.36200       -5.14900       -3.93700
H          0.99700        1.18500       -0.03000
H          0.61800       -0.27800       -0.92600
H          1.73000        0.94300       -1.61200
H          2.35600        0.98500        1.61600
H          4.00600        0.50000        1.25000
H          2.85200       -0.66700        1.96300
H          1.95400       -1.21100       -2.53900
H          3.01800       -3.01200       -3.71000
H          5.74700       -3.58800       -0.43200
H          4.66600       -1.77000        0.76800
H          7.08600       -4.58500       -2.40400
H          8.64800       -6.30200       -4.20500
H          8.28900       -7.67300       -6.26300
H          6.03600       -7.91000       -7.25100
H          4.07700       -6.77200       -6.20500
