16
2566-44-1.pdb
O          0.91700        0.08000       -0.09200
C          2.33600        0.08800       -0.01700
C          2.90600       -0.79900       -1.11500
C          4.40300       -0.88400       -1.05900
C          5.26000        0.32800       -1.32700
C          5.20800       -0.78900       -2.33000
H          0.59400        0.70300        0.58300
H          2.63800       -0.26900        0.97400
H          2.68400        1.12100       -0.13200
H          2.56600       -0.43100       -2.09000
H          2.48600       -1.81000       -1.02400
H          4.74200       -1.57700       -0.29600
H          6.16700        0.44500       -0.74400
H          4.78000        1.26400       -1.58900
H          6.08100       -1.42500       -2.42800
H          4.69300       -0.60400       -3.26600
