20
25680-58-4.pdb
C          2.55900       -1.68300        0.08500
C          2.47000       -0.16300        0.18000
C          2.98100        0.40100        1.48200
N          3.56900       -0.45600        2.36300
C          3.98700        0.07900        3.53000
C          3.85100        1.42400        3.81600
N          3.27900        2.29300        2.95600
C          2.83800        1.75800        1.79100
O          2.22100        2.58300        0.87000
C          1.84900        3.84000        1.42900
H          2.06800       -2.03900       -0.82500
H          2.07400       -2.16600        0.94100
H          3.60300       -2.01400        0.05700
H          1.41900        0.12600        0.05900
H          3.03700        0.27900       -0.64900
H          4.43300       -0.61000        4.23700
H          4.19200        1.84000        4.75600
H          1.25500        4.37600        0.68300
H          2.72900        4.45100        1.65600
H          1.22100        3.71100        2.31800
