25
2568-34-5.pdb
C          1.06300        0.05900       -0.22200
N          2.50200       -0.19600       -0.20200
C          2.98900       -1.00300        0.93900
C          3.18800       -2.48800        0.62400
O          2.87600       -2.82500       -0.65000
O          3.60100       -3.30400        1.43300
C          3.27200        0.79400       -0.85200
O          2.72700        1.72000       -1.45500
C          4.76400        0.77900       -0.84800
C          5.51800       -0.39700       -0.86900
C          6.91400       -0.34000       -0.92200
C          7.56700        0.88800       -1.00300
C          6.82700        2.06700       -1.02200
C          5.43200        2.01200       -0.94000
H          0.51300       -0.79900        0.17400
H          0.73100        0.25400       -1.24600
H          0.85900        0.94600        0.38900
H          2.24500       -0.94200        1.74000
H          3.93100       -0.59700        1.31000
H          2.56700       -2.03500       -1.14200
H          5.05200       -1.37400       -0.87700
H          7.49100       -1.26200       -0.92100
H          8.65100        0.92500       -1.07100
H          7.33000        3.02700       -1.11700
H          4.86500        2.94100       -0.97400
