43
2577-40-4.pdb
N          1.95100       -1.37000       -0.40200
C          3.10700       -0.49000       -0.15900
C          4.41700       -1.25600        0.10500
C          4.49400       -2.27800        1.20200
C          5.41700       -3.32400        1.04400
C          5.62400       -4.24800        2.05900
C          4.91400       -4.13500        3.25100
C          3.99900       -3.09600        3.42400
C          3.79100       -2.16600        2.40400
C          3.39000        0.35900       -1.42700
O          2.85800        0.14600       -2.51300
N          4.41500        1.27900       -1.27100
C          4.92600        2.06700       -2.41200
C          4.95900        3.56200       -2.07900
C          3.62900        4.23300       -1.81700
C          3.61700        5.42000       -1.06800
C          2.44600        6.16600       -0.93300
C          1.26900        5.73300       -1.53700
C          1.25700        4.53800       -2.25000
C          2.42900        3.79400       -2.39300
C          6.35300        1.62700       -2.79600
O          6.81000        0.57900       -2.06900
O          7.02900        2.16000       -3.66100
H          2.00900       -2.20400        0.18300
H          1.99000       -1.70000       -1.37100
H          2.86300        0.18100        0.67100
H          5.20500       -0.52900        0.34300
H          4.72000       -1.73400       -0.83800
H          5.99800       -3.41400        0.12800
H          6.35300       -5.04400        1.92700
H          5.08700       -4.84900        4.05000
H          3.45600       -3.01000        4.36100
H          3.08900       -1.35400        2.57600
H          4.60200        1.62800       -0.33500
H          4.31200        1.86300       -3.29400
H          5.43000        4.10700       -2.90700
H          5.60800        3.70700       -1.20300
H          4.53200        5.79000       -0.60900
H          2.45900        7.10000       -0.37800
H          0.36500        6.33000       -1.46200
H          0.33900        4.19300       -2.72100
H          2.37800        2.88300       -2.98600
H          6.10400        0.26700       -1.47700
