40
25812-30-0.pdb
C          2.63700       -0.94000       -2.33600
C          1.28000       -0.58800       -1.80600
C          0.75900        0.69400       -1.96100
C         -0.50400        1.00400       -1.45100
C         -1.28400        0.04700       -0.77200
C         -2.59700        0.51600       -0.21200
C         -0.76800       -1.25300       -0.63300
O         -1.33200       -2.32000        0.01500
C         -2.74700       -2.46000       -0.04000
C         -3.12100       -3.94200        0.01900
C         -2.59900       -4.65500        1.27600
C         -2.98000       -6.15700        1.37700
C         -4.51500       -6.32300        1.39600
C         -2.42000       -6.97400        0.20100
C         -2.43300       -6.73300        2.69100
O         -1.08300       -6.69700        2.80800
O         -3.12300       -7.20100        3.58600
C          0.51000       -1.54800       -1.13800
H          3.10700       -0.08600       -2.83500
H          2.55800       -1.75200       -3.06700
H          3.29300       -1.25300       -1.51800
H          1.33100        1.46800       -2.46700
H         -0.87100        2.02100       -1.57500
H         -2.73200        1.59400       -0.35300
H         -2.64500        0.32900        0.86500
H         -3.43800        0.03900       -0.72100
H         -3.15100       -2.06700       -0.97800
H         -3.19300       -1.94100        0.81500
H         -2.70900       -4.43200       -0.87000
H         -4.21100       -4.01100       -0.03500
H         -2.97000       -4.12900        2.16600
H         -1.50800       -4.55200        1.30400
H         -4.97700       -6.00300        0.45600
H         -4.96300       -5.74000        2.20900
H         -4.79900       -7.37000        1.55000
H         -2.88100       -6.68700       -0.74900
H         -2.60500       -8.04600        0.34300
H         -1.33800       -6.84400        0.09600
H         -0.61400       -6.29800        2.05300
H          0.90900       -2.55200       -1.00400
