27
2585-24-2.pdb
C          2.89700        2.19700        0.86200
C          2.48300        1.03100        1.74700
C          3.12200       -0.28600        1.31100
N          4.57100       -0.25700        1.38900
C          5.22500       -0.58000        2.55700
O          4.64900       -0.93700        3.57800
C          6.71000       -0.50500        2.54400
C          7.40800        0.41100        1.74600
C          8.80500        0.47400        1.81300
C          9.49900       -0.38000        2.68400
C          8.80700       -1.29700        3.48500
C          7.41400       -1.35300        3.41400
N         10.96300       -0.30300        2.76700
O         11.53600        0.52800        2.04700
O         11.53800       -1.07200        3.54900
H          2.40900        3.11900        1.19300
H          2.61400        2.01600       -0.18000
H          3.97900        2.36000        0.90100
H          1.39200        0.92600        1.70900
H          2.74800        1.25600        2.78700
H          2.85400       -0.52300        0.27700
H          2.75100       -1.09800        1.94800
H          5.08800       -0.06100        0.54400
H          6.88100        1.10700        1.09800
H          9.33300        1.20100        1.19800
H          9.32900       -1.96300        4.17000
H          6.87000       -2.05400        4.04700
