26
2591-17-5.pdb
O          5.39000        0.61000        1.74100
C          4.65800       -0.08400        0.82900
O          5.09800       -0.42600       -0.25500
C          3.22600       -0.34800        1.31700
C          2.93000       -1.85100        1.31900
S          3.12100       -2.44500        3.04200
C          3.13900       -0.81300        3.69200
N          3.10000        0.17100        2.70000
C          3.27200       -0.51900        5.01000
S          3.45800       -1.75200        6.26800
C          3.89200       -0.49400        7.35000
C          4.29000       -0.61700        8.61300
C          4.61200        0.59700        9.38600
O          4.98600        0.52500       10.55000
C          4.46900        1.91000        8.71300
C          4.07000        2.01800        7.44000
C          3.76500        0.80600        6.66000
N          3.40500        0.80900        5.41300
H          4.80700        0.74500        2.53100
H          2.55300        0.20100        0.64900
H          3.58800       -2.42600        0.66100
H          1.89400       -2.03200        1.01400
H          2.33100        0.82200        2.87000
H          4.39300       -1.56800        9.11700
H          4.71200        2.78000        9.31300
H          3.97300        2.97400        6.94100
