20
2592-05-4.pdb
O          1.02800       -0.16300        0.01400
N          2.36000        0.22800       -0.08000
C          3.11400       -0.32800       -1.08800
C          4.44200       -0.43900       -1.18400
C          5.43900        0.03600       -0.19400
N          6.67400       -0.17600       -0.55600
C          6.57800       -0.80600       -1.81900
C          7.64400       -1.20600       -2.60600
C          7.36900       -1.81200       -3.83600
C          6.04300       -2.01300       -4.25900
C          4.96700       -1.60700       -3.46300
C          5.25400       -1.00400       -2.25300
H          0.60300        0.57600        0.49000
H          2.83900        0.29800        0.81900
H          2.48500       -0.70000       -1.89500
H          5.12700        0.51900        0.74200
H          8.66200       -1.04500       -2.27200
H          8.19200       -2.12900       -4.47300
H          5.85500       -2.48900       -5.21900
H          3.94600       -1.76200       -3.79300
