23
260-94-6.pdb
C          3.64100       -0.66600        0.04700
C          3.59300        0.72300        0.06200
C          2.35700        1.37700        0.03100
C          1.15900        0.67700       -0.00200
N         -0.00100        1.35600       -0.00900
C         -1.16000        0.67500       -0.00300
C         -2.35900        1.37400        0.02400
C         -3.59300        0.71800        0.06000
C         -3.63900       -0.67100        0.06100
C         -2.45000       -1.39800        0.02100
C         -1.21100       -0.73300       -0.00700
C          0.00200       -1.42900       -0.02700
C          1.21400       -0.73000       -0.01300
C          2.45300       -1.39400        0.00400
H          4.59800       -1.18000        0.07300
H          4.51100        1.30300        0.10000
H          2.32800        2.46500        0.04400
H         -2.33000        2.46100        0.02500
H         -4.51300        1.29700        0.09100
H         -4.59500       -1.18700        0.09500
H         -2.49400       -2.48500        0.02300
H          0.00300       -2.51700       -0.03500
H          2.49900       -2.48000       -0.00400
