22
26093-31-2.pdb
C          0.83600        0.09800        0.01000
C          2.33600        0.09600        0.02200
C          3.04100        1.23700       -0.00800
C          4.51300        1.28400        0.01200
O          5.10400        2.35300       -0.05200
O          5.17400        0.07300        0.12300
C          4.46500       -1.14500        0.10100
C          5.23600       -2.31100        0.09300
C          4.61300       -3.55600        0.03400
N          5.36900       -4.71700       -0.15600
C          3.22200       -3.59800       -0.08000
C          2.45500       -2.42600       -0.04000
C          3.07200       -1.17400        0.04300
H          0.43000        1.11500       -0.03500
H          0.44200       -0.37000        0.91800
H          0.45100       -0.44100       -0.86200
H          2.56100        2.20800       -0.05100
H          6.32000       -2.23400        0.10900
H          6.29900       -4.67700        0.24900
H          4.88200       -5.57700        0.07800
H          2.71500       -4.55100       -0.21100
H          1.37500       -2.52000       -0.11100
