25
2612-26-2.pdb
C          0.99000        0.01500       -0.07200
C          2.50800        0.02100        0.01000
C          3.00000        0.91000        1.15300
C          4.52900        0.91900        1.23900
C          5.07800        1.81900        2.37000
C          4.59400        1.40500        3.76900
O          5.05100        0.10200        4.11500
C          6.61800        1.84400        2.32800
O          7.17500        0.55000        2.52300
H          0.65400       -0.65100       -0.87300
H          0.60500        1.01800       -0.27900
H          0.54700       -0.33500        0.86700
H          2.92100        0.37000       -0.94400
H          2.86300       -1.00500        0.16100
H          2.56900        0.53900        2.08900
H          2.63500        1.93400        1.00800
H          4.93000        1.28000        0.28300
H          4.89200       -0.10900        1.35600
H          4.72600        2.84400        2.18900
H          3.50400        1.43200        3.85600
H          4.98800        2.09900        4.51900
H          4.62900       -0.52800        3.50500
H          7.01600        2.50600        3.10500
H          6.96800        2.21700        1.36300
H          6.80200        0.21100        3.36100
