30
2618-96-4.pdb
O          1.02800        0.20500        0.19900
S          2.47200        0.16800        0.16300
O          3.28700        0.63800        1.25800
N          2.98600       -1.35700       -0.23100
S          2.55200       -2.60800        0.77900
O          3.20700       -3.78400        0.24000
O          2.79100       -2.22100        2.15100
C          0.81200       -2.84900        0.54200
C          0.33400       -3.27700       -0.70100
C         -1.02700       -3.54600       -0.85500
C         -1.89900       -3.40000        0.22700
C         -1.41700       -2.97500        1.46500
C         -0.06000       -2.69700        1.62600
C          2.95500        1.12600       -1.26500
C          2.48700        0.77700       -2.53600
C          2.78800        1.60100       -3.62500
C          3.54400        2.76100       -3.44200
C          4.02000        3.09600       -2.17500
C          3.73100        2.27700       -1.08300
H          3.98800       -1.40700       -0.37800
H          1.01000       -3.42000       -1.53900
H         -1.41200       -3.88500       -1.81400
H         -2.95700       -3.62500        0.10700
H         -2.09800       -2.86700        2.30600
H          0.30700       -2.37600        2.60000
H          1.86600       -0.10300       -2.68500
H          2.41300        1.35700       -4.61600
H          3.75200        3.41500       -4.28700
H          4.59600        4.00800       -2.03200
H          4.08500        2.56400       -0.09500
