21
26218-80-4.pdb
C          1.17400       -0.65200        0.48900
O          2.60200       -0.66800        0.50300
C          3.15300       -0.94300       -0.70400
O          2.54200       -1.17000       -1.74000
C          4.62600       -0.93600       -0.61600
C          5.34400       -0.70200        0.56000
C          6.74200       -0.73200        0.52700
C          7.36700       -0.99100       -0.68700
O          8.74600       -1.02000       -0.71900
C          9.24400       -1.29700       -2.03200
N          6.69300       -1.21700       -1.83400
C          5.34300       -1.18600       -1.77100
H          0.83300       -0.27900        1.45800
H          0.78700       -1.66600        0.34700
H          0.79700        0.01800       -0.29000
H          4.83200       -0.50100        1.49600
H          7.31800       -0.55800        1.42800
H         10.33600       -1.29200       -1.99600
H          8.93400       -0.52600       -2.74900
H          8.92800       -2.29000       -2.37600
H          4.84900       -1.37300       -2.72400
