16
2623-91-8.pdb
C          0.94900       -0.07800       -0.05000
C          2.47100       -0.02000       -0.04800
C          3.03800        1.07800       -0.95300
N          2.66600        2.44900       -0.49500
C          4.57700        1.00200       -1.02400
O          5.11300        2.24800       -1.14100
O          5.24500       -0.01600       -1.01300
H          0.60500       -0.94100        0.52700
H          0.56300       -0.17800       -1.07000
H          0.51200        0.81800        0.40000
H          2.85000       -0.99400       -0.38300
H          2.83000        0.10700        0.98100
H          2.67400        0.95300       -1.97900
H          2.83900        2.50300        0.51500
H          1.65100        2.54700       -0.57900
H          4.34800        2.87600       -1.09700
