22
26239-55-4.pdb
N          0.99000        0.53200        0.00400
C          2.27200        0.08000        0.12700
O          2.61300       -0.94600       -0.46100
C          3.20800        0.88200        1.04300
N          4.68200        0.73600        0.69800
C          5.03700        1.18600       -0.72700
C          4.79300        2.67200       -1.12000
O          3.59000        3.05000       -1.01000
O          5.81900        3.31300       -1.46500
C          5.56200        1.46700        1.74000
C          5.48300        0.94900        3.20400
O          5.14500       -0.27700        3.28000
O          5.70300        1.79200        4.11000
H          0.38100        0.01500       -0.61700
H          0.56100        1.12500        0.70100
H          3.06500        0.48000        2.05100
H          2.95300        1.94300        1.05100
H          4.89000       -0.26600        0.81900
H          4.47500        0.54900       -1.41700
H          6.09600        0.93500       -0.86100
H          5.29300        2.52700        1.68900
H          6.59600        1.33300        1.40200
