30
26311-45-5.pdb
C          4.57600       -2.04500        1.81700
C          4.16600       -0.94700        0.85000
C          4.84500        0.38200        1.18700
C          4.44800        1.47000        0.18500
C          5.08700        2.83100        0.48800
C          6.59700        2.84200        0.43300
C          7.27600        2.49500       -0.74300
C          8.67100        2.52500       -0.79200
C          9.40800        2.90800        0.33400
C          8.73800        3.28000        1.50600
C          7.34100        3.23800        1.55400
C         10.88700        2.96000        0.21500
O         11.54300        2.69700        1.36400
O         11.45800        3.18500       -0.83800
H          4.08200       -2.98500        1.55500
H          4.29500       -1.78800        2.84600
H          5.65800       -2.21000        1.78800
H          3.07700       -0.82700        0.87900
H          4.43200       -1.25200       -0.16900
H          5.93100        0.23800        1.17900
H          4.56600        0.69300        2.20000
H          3.35800        1.59300        0.20400
H          4.70600        1.14700       -0.83100
H          4.74300        3.17300        1.47200
H          4.71700        3.56900       -0.23500
H          6.72400        2.20700       -1.63500
H          9.18300        2.25900       -1.71500
H          9.27700        3.64000        2.37800
H          6.83300        3.53400        2.47000
H         10.98500        2.34900        2.08400
