25
26377-17-3.pdb
C          1.54900       -1.22600       -0.19000
C          2.34800        0.05500       -0.34100
O          3.15200       -0.06600       -1.52300
C          4.37700       -0.63800       -1.34800
O          4.89500       -0.88500       -0.26800
C          4.91100       -1.08500       -2.67200
C          6.40800       -1.20600       -2.69900
O          7.09900       -0.27900       -3.12500
C          7.07700       -2.45900       -2.23600
C          6.38800       -3.52500       -1.65900
C          7.11500       -4.64500       -1.28500
N          8.45100       -4.76300       -1.44600
C          9.09500       -3.71200       -1.99200
C          8.46200       -2.55300       -2.39900
H          0.91100       -1.19600        0.69600
H          2.21400       -2.09300       -0.12000
H          0.92200       -1.38600       -1.07500
H          2.95300        0.26200        0.54900
H          1.67400        0.90600       -0.48400
H          4.62700       -0.36000       -3.44500
H          4.43600       -2.03300       -2.94400
H          5.32000       -3.51300       -1.47700
H          6.62900       -5.50500       -0.83200
H         10.17100       -3.82800       -2.09700
H          9.03700       -1.74100       -2.83300
