34
2638-94-0.pdb
C          2.50300        4.37400        4.84500
C          2.85000        2.92600        4.45400
C          1.62300        2.01000        4.61600
C          1.87100        0.53100        4.30300
C          0.66100       -0.37800        4.54300
O         -0.37800        0.17600        4.99600
O          0.86500       -1.59600        4.27200
N          3.39700        2.87600        3.07700
N          2.77000        3.55900        2.23300
C          3.26600        3.47500        0.83200
C          4.21600        2.27900        0.62600
C          3.98900        4.78100        0.43600
C          3.15400        6.06400        0.53500
C          3.88400        7.33100        0.07100
O          5.05700        7.17500       -0.36900
O          3.20800        8.39400        0.18400
C          2.06500        3.25900       -0.00800
N          1.14300        3.06500       -0.69400
C          3.97600        2.46300        5.36400
N          4.91100        2.07800        6.11800
H          1.65100        4.75400        4.27000
H          3.35000        5.04700        4.66200
H          2.24500        4.45100        5.90800
H          0.80900        2.37400        3.97400
H          1.25800        2.09100        5.65000
H          2.68200        0.14200        4.93000
H          2.17800        0.41700        3.25700
H          4.53100        2.19600       -0.42100
H          3.73000        1.33300        0.89500
H          5.12200        2.37300        1.23600
H          4.34800        4.68400       -0.59900
H          4.88400        4.90100        1.06100
H          2.83400        6.22300        1.57100
H          2.25200        5.97700       -0.08200
