19
26446-35-5.pdb
C          1.09700       -0.40000       -1.94000
C          2.59300       -0.43900       -1.97800
O          3.25100       -1.19400       -2.67800
O          3.10600        0.48200       -1.11900
C          4.54300        0.56300       -1.09400
C          5.08100        1.34000       -2.30200
O          4.57000        2.68100       -2.28400
C          6.61600        1.35100       -2.29400
O          7.14100        2.07800       -3.40100
H          0.69900       -1.13200       -2.65000
H          0.74400        0.59300       -2.23000
H          0.74500       -0.65700       -0.93800
H          4.97500       -0.44300       -1.03100
H          4.80000        1.08800       -0.16700
H          4.72100        0.90600       -3.24000
H          5.06000        3.18400       -1.61000
H          7.01500        0.33300       -2.33300
H          6.99400        1.83800       -1.38900
H          6.62500        1.83400       -4.19000
