23
26494-55-3.pdb
O          2.72700        0.65700       -1.51200
C          2.49200        1.32200       -0.46400
O          1.74200        2.33400       -0.31100
C          3.22300        0.86400        0.81900
N          4.68500        0.69400        0.71100
C          5.22200       -0.58500        0.74300
O          4.60800       -1.61300        1.03500
C          6.68500       -0.64600        0.32400
O          7.53800        0.40300        0.74700
C          6.94100        1.63100        0.63600
C          7.81800        2.72000        0.62600
C          7.32100        4.01800        0.53900
C          5.94700        4.22200        0.46300
C          5.06900        3.13300        0.49500
C          5.55000        1.82000        0.59100
H          2.76500       -0.09300        1.09600
H          3.02200        1.54700        1.65200
H          6.72500       -0.72700       -0.77000
H          7.10400       -1.57300        0.73100
H          8.88900        2.55000        0.68300
H          8.00100        4.86500        0.52700
H          5.54400        5.22800        0.38500
H          4.00400        3.34600        0.44000
