23
26518-71-8.pdb
C          1.35000        0.15900        0.82800
C          2.57500       -0.07900       -0.01200
O          2.94000       -1.21700       -0.30100
C          3.35000        1.09400       -0.50200
C          4.48800        0.85600       -1.28600
C          5.25000        1.91900       -1.76400
C          4.89400        3.22500       -1.44000
O          5.67900        4.21800       -1.95700
C          5.55100        5.45900       -1.27800
C          4.19200        5.84000       -0.69200
O          3.86000        6.99400       -0.44600
N          3.38800        4.78100       -0.36300
C          3.75700        3.46900       -0.66400
C          2.97600        2.41000       -0.20000
H          0.90400       -0.80500        1.09100
H          0.61600        0.73100        0.25500
H          1.61300        0.67800        1.75400
H          4.78600       -0.16600       -1.52500
H          6.12600        1.72900       -2.37900
H          5.83300        6.24200       -1.99000
H          6.28000        5.47600       -0.46000
H          2.52200        4.99800        0.11100
H          2.09800        2.61900        0.40300
