26
26536-60-7.pdb
C          0.75100        0.62100        0.30100
C          2.07500        0.20700        0.92600
C          3.10700        1.30900        0.74500
N          4.40500        0.94700        1.28400
C          5.06600        1.56300        2.30600
S          4.37000        2.40300        3.56500
N          6.42900        1.51200        2.22800
C          7.20400        1.36700        1.00300
C          6.96000        2.50100        0.00100
C          7.37400        3.86700        0.53200
H          0.00400       -0.17000        0.42600
H          0.86900        0.81200       -0.77000
H          0.36700        1.53200        0.77000
H          2.42700       -0.72200        0.46000
H          1.93100       -0.00700        1.99200
H          2.75900        2.25200        1.17700
H          3.27200        1.48700       -0.32400
H          4.91000        0.22100        0.79600
H          6.88200        2.00800        2.98700
H          6.95800        0.40700        0.54100
H          8.25700        1.33300        1.29300
H          5.90800        2.54400       -0.29200
H          7.53000        2.29300       -0.91400
H          6.79400        4.14500        1.41700
H          7.20600        4.63300       -0.22900
H          8.43600        3.87900        0.79800
