30
26537-19-9.pdb
C          1.08400       -1.33000        0.32300
O          2.51000       -1.29400        0.34400
C          3.07400       -1.09500       -0.87500
O          2.47500       -0.94800       -1.92800
C          4.55400       -1.13100       -0.76600
C          5.21800       -0.89600        0.43900
C          6.61700       -0.94100        0.49500
C          7.38900       -1.22100       -0.64700
C          6.69600       -1.45200       -1.85200
C          5.29900       -1.40100       -1.91500
C          8.92600       -1.28800       -0.61300
C          9.53200       -0.96700        0.77300
C          9.39200       -2.70900       -0.99800
C          9.52200       -0.27400       -1.61400
H          0.73400       -1.46100        1.35100
H          0.73100       -2.17700       -0.27400
H          0.68000       -0.38800       -0.06300
H          4.66200       -0.66900        1.34600
H          7.08100       -0.74900        1.45900
H          7.23900       -1.67800       -2.76800
H          4.79800       -1.58300       -2.86500
H          9.19700       -1.68000        1.53500
H          9.26100        0.04200        1.10600
H         10.62700       -1.01500        0.74700
H          8.99600       -3.45700       -0.30000
H         10.48600       -2.78400       -0.98100
H          9.06600       -2.99300       -2.00400
H          9.20400        0.74800       -1.37500
H          9.21900       -0.48100       -2.64600
H         10.61800       -0.29600       -1.59200
