29
26607-51-2.pdb
C          2.30600       -0.82900        0.04800
C          3.30900       -0.07900       -0.81200
N          3.37300        1.32600       -0.42500
C          2.62100        2.25800       -1.07100
O          1.65600        1.98700       -1.77400
O          3.16900        3.48300       -0.91400
C          2.79500        4.43300       -1.91700
C          2.05800        5.61000       -1.33900
C          2.75300        6.75200       -0.91900
C          2.06000        7.86800       -0.44800
C          0.66800        7.84900       -0.38200
C         -0.03200        6.71100       -0.77800
C          0.65900        5.59300       -1.24900
C          4.72000       -0.67900       -0.71100
O          4.82200       -1.95300       -1.14900
O          5.69200       -0.05400       -0.30800
H          1.31000       -0.38000       -0.03400
H          2.59800       -0.80900        1.10400
H          2.22500       -1.87900       -0.25400
H          3.01600       -0.13200       -1.86700
H          4.23600        1.66300       -0.00900
H          2.21500        3.99300       -2.73800
H          3.72700        4.78100       -2.38000
H          3.83900        6.78400       -0.97400
H          2.60600        8.75500       -0.13700
H          0.12900        8.72100       -0.02200
H         -1.11800        6.69600       -0.72700
H          0.10000        4.71300       -1.56400
H          3.99500       -2.34600       -1.48700
