34
26685-82-5.pdb
O          5.35100       -1.09700        0.67000
C          4.85100        0.02800        0.95800
O          5.40500        1.16900        0.92400
C          3.35600        0.02500        1.35800
C          2.95300       -1.27100        2.07900
C          3.50900       -1.34200        3.50300
C          3.14300       -0.11100        4.32900
C          3.50300        1.19100        3.61800
C          2.90900        1.22500        2.20300
N          3.19100        2.49900        1.56500
C          2.22500        3.34200        1.07500
O          1.01700        3.12000        1.12100
C          2.70200        4.62200        0.49400
C          1.94200        5.25300       -0.49900
C          2.33000        6.49800       -0.99300
C          3.46700        7.12700       -0.48300
C          4.22200        6.50800        0.51300
C          3.84100        5.25500        1.00300
H          2.81500        0.06100        0.40200
H          3.27400       -2.15600        1.52000
H          1.85700       -1.32300        2.12500
H          4.60000       -1.44600        3.47000
H          3.12000       -2.23800        4.00000
H          3.64700       -0.15400        5.30100
H          2.06500       -0.12100        4.53100
H          4.59300        1.31000        3.58800
H          3.12100        2.03700        4.20300
H          1.81900        1.16100        2.31600
H          4.16000        2.56600        1.22800
H          1.04400        4.77000       -0.88200
H          1.73900        6.98400       -1.76800
H          3.76500        8.10100       -0.85900
H          5.10000        6.99800        0.92300
H          4.42100        4.79200        1.79800
