28
26759-46-6.pdb
C          1.39300        1.35600       -2.36700
O          2.80200        1.23200       -2.18300
C          3.18000        0.39300       -1.18500
O          2.43800       -0.26300       -0.47200
C          4.66400        0.37800       -1.08700
C          5.38000        1.52900       -1.45100
C          6.77100        1.55600       -1.39300
O          7.51900        2.65000       -1.75800
C          6.86500        3.91300       -1.69300
C          7.46500        0.40200       -0.99200
O          8.83800        0.47900       -1.00900
C          9.56300       -0.67100       -0.60100
C          6.74500       -0.73800       -0.60800
C          5.34000       -0.74900       -0.59200
N          4.68400       -1.96200       -0.31000
H          1.22400        1.87800       -3.31300
H          0.96900        1.95600       -1.55700
H          0.91000        0.37600       -2.42300
H          4.82300        2.39400       -1.79700
H          7.59200        4.68500       -1.95900
H          6.51000        4.11700       -0.67700
H          6.04500        3.98900       -2.41600
H         10.63100       -0.43900       -0.66600
H          9.37000       -1.52100       -1.26600
H          9.34400       -0.92800        0.44100
H          7.25900       -1.64800       -0.31600
H          5.16400       -2.55300        0.36100
H          3.70000       -1.82200       -0.05500
