22
26774-88-9.pdb
N          3.63000        0.01600       -1.06200
C          2.47900        0.01200       -0.08000
C          2.11400       -1.46600        0.28100
O          1.12100       -1.66200        1.01400
O          2.90800       -2.27000       -0.31000
C          2.83000        0.90500        1.08400
C          2.54100        2.22600        1.06500
C          2.87300        3.17700        2.18100
C          3.59000        2.53000        3.32800
C          3.88000        1.22200        3.36500
C          3.51600        0.25700        2.27200
H          3.40100       -0.74300       -1.72400
H          4.44100       -0.36800       -0.56600
H          3.81700        0.91100       -1.50400
H          1.63000        0.41900       -0.64400
H          2.02500        2.66700        0.21600
H          1.94700        3.63400        2.54800
H          3.50200        3.98000        1.78100
H          3.86300        3.16600        4.16500
H          4.38400        0.80800        4.23700
H          2.87000       -0.51200        2.70900
H          4.43600       -0.23100        1.93000
