25
26819-07-8.pdb
C          0.72000        1.30100        1.52700
C          2.14800        1.23300        2.03600
N          3.10000        1.38900        0.95500
C          4.44300        1.13300        1.15600
O          4.89200        0.74800        2.23000
C          5.35800        1.36500       -0.00400
C          4.89100        1.48300       -1.32000
C          5.79200        1.66600       -2.37100
C          7.16200        1.72700       -2.12000
C          7.64900        1.60800       -0.81400
C          9.12000        1.67800       -0.53100
C          6.73900        1.42200        0.23800
H          0.01200        1.15900        2.34900
H          0.53500        0.52800        0.77400
H          0.51700        2.27200        1.06400
H          2.33000        0.27300        2.53100
H          2.33300        2.02900        2.76600
H          2.82900        1.96800        0.17300
H          3.83500        1.40800       -1.55800
H          5.42500        1.75100       -3.39100
H          7.84900        1.86100       -2.95300
H          9.70000        1.80700       -1.45100
H          9.45900        0.75500       -0.04900
H          9.33600        2.52800        0.12400
H          7.11000        1.31500        1.25800
