51
2690-08-6.pdb
C          1.04300        0.04200        0.01700
C          2.56200        0.03900        0.02800
C          3.10300       -0.16700        1.44000
C          4.63000       -0.17300        1.45200
C          5.16600       -0.38200        2.86500
C          6.69500       -0.38700        2.88500
C          7.20500       -0.59900        4.30900
C          8.72900       -0.60900        4.37600
S          9.19100       -0.87000        6.11400
C         11.00200       -0.84500        5.96500
C         11.57400       -1.05500        7.36400
C         13.10100       -1.05400        7.36700
C         13.62900       -1.26700        8.78600
C         15.15400       -1.27000        8.81500
C         15.67600       -1.48200       10.23500
C         17.20400       -1.48600       10.26800
C         17.72300       -1.69800       11.68000
H          0.67100        0.19100       -1.00100
H          0.64800        0.84900        0.64500
H          0.64500       -0.90800        0.39000
H          2.92800        0.98800       -0.37700
H          2.92500       -0.75800       -0.63000
H          2.72800       -1.11600        1.84400
H          2.73300        0.63100        2.09700
H          5.00600        0.77600        1.05200
H          5.00100       -0.97100        0.79700
H          4.78900       -1.33100        3.26500
H          4.79200        0.41400        3.52100
H          7.07500        0.56400        2.49200
H          7.07200       -1.18500        2.23400
H          6.80700       -1.54900        4.68900
H          6.80800        0.20000        4.94900
H          9.13700        0.34400        4.02600
H          9.13700       -1.41800        3.76100
H         11.32500        0.11700        5.55600
H         11.32700       -1.64500        5.29100
H         11.22100       -2.01100        7.77300
H         11.21900       -0.26300        8.03600
H         13.47200       -0.10000        6.97100
H         13.47400       -1.84800        6.70800
H         13.25100       -2.21900        9.18000
H         13.24900       -0.47400        9.44200
H         15.53300       -0.31800        8.42300
H         15.53400       -2.06300        8.16100
H         15.29800       -2.43400       10.62800
H         15.29600       -0.69000       10.89100
H         17.58600       -0.53500        9.88100
H         17.58800       -2.28000        9.61800
H         17.37800       -0.90100       12.34800
H         18.81700       -1.69700       11.68600
H         17.38000       -2.65600       12.08400
