22
27035-39-8.pdb
C          1.83900        0.20900       -0.38200
C          1.34800        1.57900        0.10400
C         -0.12900        1.64400        0.16500
O         -0.93200        2.36000       -0.76900
C         -0.83600        0.95300       -0.97700
C         -1.87300       -0.01600       -0.56300
C         -1.45400       -0.83100        0.66600
C         -0.11400       -1.51000        0.69900
O          0.49600       -1.82200       -0.54100
C          1.30500       -1.00200        0.34400
H          2.93200        0.20300       -0.27700
H          1.67500        0.10500       -1.46100
H          1.74600        2.36700       -0.54500
H          1.74900        1.76200        1.10800
H         -0.50100        1.63800        1.18000
H         -0.33600        0.65200       -1.88600
H         -2.06300       -0.70500       -1.39600
H         -2.82000        0.49600       -0.35800
H         -1.53400       -0.21100        1.56700
H         -2.21600       -1.61000        0.80200
H         -0.13300       -2.29100        1.45600
H          2.11900       -1.50900        0.85700
