35
270912-72-6.pdb
C          3.84600        0.12000        1.61500
C          2.81500        0.38100        0.50600
C          2.37400       -0.91000       -0.20000
C          1.57300        1.00800        1.16200
O          3.31000        1.35600       -0.45600
C          4.42000        1.05100       -1.17600
O          5.07000        0.01400       -1.07400
N          4.77100        2.01500       -2.08900
C          4.12700        3.28500       -2.32500
C          4.51900        3.59100       -3.76600
C          5.92800        2.98400       -3.91300
C          6.24000        2.45600       -5.30800
N          6.19400        3.55000       -6.30700
C          5.94900        1.83800       -2.90100
H          3.45200       -0.56800        2.37000
H          4.12200        1.05800        2.10900
H          4.77500       -0.31300        1.23500
H          1.92300       -1.61700        0.50500
H          3.20400       -1.42400       -0.69100
H          1.64100       -0.68700       -0.98400
H          1.15100        0.34300        1.92800
H          0.79400        1.21100        0.42100
H          1.81600        1.96400        1.63500
H          4.55900        4.01500       -1.63200
H          3.04500        3.23500       -2.17400
H          4.50300        4.66300       -3.98200
H          3.81800        3.09700       -4.44800
H          6.67400        3.73400       -3.62100
H          7.24600        2.02800       -5.35700
H          5.51700        1.70300       -5.63700
H          6.87400        4.29400       -6.09700
H          5.26200        3.98100       -6.36900
H          6.41900        3.19300       -7.24700
H          6.83500        1.89300       -2.25500
H          5.92600        0.84400       -3.36400
