15
271-29-4.pdb
N         -1.56400        1.08300        0.02400
C         -2.40200       -0.00000        0.04100
C         -1.62300       -1.13600        0.04000
C         -0.26200       -0.72700        0.00400
C          0.96500       -1.40400       -0.02500
C          2.10500       -0.61400       -0.06800
N          2.10900        0.73700       -0.07500
C          0.92900        1.39700       -0.04100
C         -0.25300        0.66700       -0.00500
H         -1.86100        2.05000        0.02400
H         -3.47600        0.12900        0.05500
H         -1.99200       -2.15300        0.05400
H          1.02700       -2.48500       -0.02100
H          3.08900       -1.07200       -0.09900
H          0.96800        2.47900       -0.04800
