15
271-44-3.pdb
N         -1.50200        1.02300        0.00400
N         -2.36300       -0.01100        0.00100
C         -1.56100       -1.07900       -0.00200
C         -0.19100       -0.73500        0.00100
C          1.03000       -1.43000        0.00200
C          2.22100       -0.69500        0.00000
C          2.20200        0.70100       -0.00300
C          0.99500        1.40900       -0.00100
C         -0.18200        0.65600        0.00100
H         -1.88000        1.96300        0.00800
H         -2.00200       -2.06700       -0.00500
H          1.05200       -2.51600        0.00400
H          3.17400       -1.22000        0.00000
H          3.14200        1.24900       -0.00600
H          0.98200        2.49500       -0.00200
