22
27129-87-9.pdb
C          2.49500        1.10600       -0.00300
C          1.21300        0.33200        0.00200
C          1.21800       -1.06800        0.00200
C          0.01700       -1.78700        0.01900
C          0.02300       -3.29000        0.00600
C         -1.20200       -1.09300        0.03500
C         -1.22900        0.30900        0.02600
C         -2.53700        1.05700       -0.00900
O         -2.66000        1.91900        1.11300
C         -0.01600        1.00900        0.00600
H          3.36700        0.44200       -0.01000
H          2.55900        1.73000        0.89400
H          2.55300        1.74400       -0.89100
H          2.16700       -1.60000       -0.01000
H          1.04300       -3.68900        0.00500
H         -0.48400       -3.66200       -0.89000
H         -0.48700       -3.67500        0.89500
H         -2.13200       -1.65500        0.04600
H         -3.39100        0.37300       -0.00200
H         -2.59800        1.65800       -0.92200
H         -2.53200        1.36700        1.90400
H         -0.03000        2.10000       -0.00600
