24
2719-15-5.pdb
C          1.02500       -1.03700        1.62800
C          2.48300       -1.29300        1.90000
O          2.82600       -2.16400        2.69100
N          3.32000       -0.42900        1.20700
C          4.73700       -0.47300        1.18100
C          5.43700       -1.60800        1.62000
C          6.83200       -1.65800        1.60200
C          7.55000       -0.56500        1.12500
C          6.87600        0.57200        0.65500
C          5.46700        0.63100        0.68500
C          4.80400        1.89100        0.19100
N          9.01600       -0.60600        1.11700
O          9.56800       -1.62000        1.56700
O          9.61700        0.37800        0.66200
H          0.43500       -1.84000        2.07800
H          0.83800       -1.03400        0.55100
H          0.72500       -0.08400        2.06900
H          2.87800        0.35800        0.75100
H          4.91600       -2.49300        1.97300
H          7.32900       -2.55600        1.96400
H          7.44300        1.42200        0.27600
H          5.53700        2.68300        0.00300
H          4.10700        2.27700        0.94200
H          4.27000        1.70000       -0.74500
