15
272-49-1.pdb
N         -1.59500       -1.03800       -0.00200
C         -2.37000        0.09500       -0.00500
C         -1.52600        1.18500       -0.00100
C         -0.20000        0.69400       -0.00100
N          0.96600        1.38500       -0.00300
C          2.07500        0.61500       -0.00600
C          2.09700       -0.77400       -0.00400
C          0.89400       -1.47600       -0.00100
C         -0.26300       -0.69700       -0.00000
H         -1.94800       -1.98500       -0.00300
H         -3.45000        0.02900       -0.01000
H         -1.82100        2.22500       -0.00100
H          3.00700        1.17400       -0.01100
H          3.04400       -1.30200       -0.00700
H          0.86500       -2.56000        0.00000
