14
272-97-9.pdb
N         -1.48300       -1.14600       -0.00300
C         -2.30500       -0.05300       -0.00000
N         -1.62200        1.06900       -0.00400
C         -0.30100        0.68800       -0.00500
C          0.85400        1.46900       -0.00200
C          2.05000        0.76700        0.00300
N          2.16100       -0.58400       -0.00100
C          1.03700       -1.33900       -0.00800
C         -0.18800       -0.69600       -0.00600
H         -1.78000       -2.11000        0.00200
H         -3.38400       -0.13800        0.00600
H          0.81400        2.54900       -0.00100
H          2.99800        1.30000        0.01300
H          1.16100       -2.41400       -0.01200
