19
2725-81-7.pdb
O          1.42200        0.70800        0.16500
N          2.39600       -0.05400        0.10200
O          2.80200       -0.76000        1.03500
C          3.12200       -0.12900       -1.17500
C          2.69200        0.64800       -2.26200
C          3.36500        0.55400       -3.48000
C          4.45100       -0.31200       -3.59200
O          5.07200       -0.40400       -4.85300
C          6.12600       -1.28200       -5.07400
O          6.63400       -1.43300       -6.17800
C          6.62500       -2.02700       -3.90500
C          6.05700       -1.93800       -2.69800
C          4.90100       -1.07500       -2.51300
C          4.22900       -0.98700       -1.29300
H          1.83900        1.31800       -2.17800
H          3.04300        1.14300       -4.33500
H          7.48700       -2.65900       -4.08500
H          6.44800       -2.49500       -1.85300
H          4.56100       -1.58400       -0.44500
