26
27292-49-5.pdb
O          0.49800       -1.11300        2.20500
C          0.07300       -0.53800        1.04200
C          0.37700       -1.09900       -0.19100
C         -0.08000       -0.47600       -1.34500
C         -0.83400        0.69700       -1.25200
C         -1.16600        1.27300       -0.01200
C         -0.69000        0.62800        1.13500
N         -2.00100        2.37200        0.02800
C         -2.84400        2.66100        1.19400
C         -4.12600        3.34700        0.68800
O         -3.82700        4.54800       -0.04900
C         -2.99300        4.24900       -1.18300
C         -1.67700        3.57300       -0.76200
H          0.99700       -1.91800        1.98500
H          0.95500       -2.01400       -0.27100
H          0.12600       -0.90700       -2.32000
H         -1.22100        1.13400       -2.17000
H         -0.89800        1.02900        2.12200
H         -2.30500        3.32500        1.88100
H         -3.12700        1.75000        1.73200
H         -4.76200        3.62300        1.53400
H         -4.69900        2.67000        0.04300
H         -2.78200        5.19200       -1.69600
H         -3.55300        3.60800       -1.87600
H         -1.09700        4.26000       -0.13300
H         -1.07900        3.35500       -1.65200
