22
27318-90-7.pdb
O          0.94400        0.11700       -0.02800
C          2.16700        0.11100       -0.02900
C          2.94200        1.41600       -0.02900
O          2.35200        2.48600       -0.02700
C          4.40900        1.36100       -0.03100
C          5.15200        2.54600       -0.03300
C          6.53800        2.47600       -0.03500
C          7.12400        1.22400       -0.03500
N          6.42200        0.06600       -0.03400
C          5.06200        0.13200       -0.03200
C          4.30700       -1.13800       -0.03100
N          5.01600       -2.30200       -0.03100
C          4.33400       -3.47100       -0.03100
C          2.95400       -3.55600       -0.03100
C          2.23000       -2.37100       -0.03000
C          2.91600       -1.15200       -0.03000
H          4.65300        3.51300       -0.03300
H          7.14400        3.37600       -0.03700
H          8.20500        1.11100       -0.03700
H          4.95000       -4.36700       -0.03200
H          2.45300       -4.51900       -0.03100
H          1.14200       -2.39600       -0.03000
