22
2735-04-8.pdb
C          1.23300        0.12700       -0.35700
O          2.59600       -0.10100       -0.01900
C          3.17100       -1.20300       -0.58800
C          2.78100       -1.78300       -1.78500
C          3.45100       -2.91600       -2.25300
C          4.55900       -3.46800       -1.57800
N          5.07400       -4.66700       -2.10300
C          4.93000       -2.89500       -0.34800
O          5.90300       -3.26600        0.54000
C          6.67000       -4.43300        0.33000
C          4.24500       -1.75300        0.11000
H          0.86100        0.93600        0.27800
H          0.62400       -0.76200       -0.16000
H          1.13200        0.45100       -1.39700
H          1.96600       -1.38400       -2.37800
H          3.10700       -3.36500       -3.18400
H          4.84200       -4.80900       -3.08200
H          6.06700       -4.78100       -1.96200
H          7.30500       -4.57400        1.21100
H          7.34500       -4.30400       -0.52200
H          6.04400       -5.32500        0.23800
H          4.54300       -1.30100        1.05400
