26
2747-05-9.pdb
C          0.97800       -0.04800       -0.30100
C          2.45100       -0.22900       -0.09300
O          2.93200       -0.89700        0.81200
O          3.14400        0.50500       -1.05800
C          4.55200        0.46700       -1.08400
C          5.20800        1.64100       -1.45400
C          6.61100        1.67200       -1.51600
C          7.37200        0.53500       -1.21000
C          8.84300        0.48300       -1.21700
C          9.43800       -0.66700       -0.85800
C          8.71100       -1.88600       -0.47900
O          9.31500       -2.89900       -0.14800
O          7.33400       -1.82600       -0.53500
C          6.67200       -0.62800       -0.87000
C          5.28000       -0.68500       -0.82300
C          9.70100        1.65400       -1.59600
H          0.43700       -0.73700        0.35500
H          0.71100       -0.28400       -1.33400
H          0.69400        0.97600       -0.05000
H          4.63700        2.53600       -1.68800
H          7.07700        2.61200       -1.80000
H         10.51700       -0.76600       -0.83100
H          4.79500       -1.62200       -0.56900
H          9.14800        2.56900       -1.80600
H         10.28300        1.41600       -2.49400
H         10.40300        1.88700       -0.78700
