69
27519-02-4.pdb
C          0.96600       12.30600       -1.11600
C          2.48200       12.30100       -1.11300
C          3.00000       11.13800       -0.28200
C          4.51800       11.12800       -0.27800
C          5.02900        9.96500        0.55300
C          6.54500        9.95800        0.55500
C          7.05400        8.79500        1.38600
C          8.57000        8.78800        1.38700
C          9.07200        7.62000        2.21500
C         10.58100        7.61100        2.21100
C         11.10400        6.44200        3.03700
C         12.62500        6.44800        3.04900
C         13.16300        7.75200        3.62800
C         12.69400        7.95500        5.04500
C         13.56700        8.05200        6.06200
C         15.03200        7.98900        5.84200
C         15.80000        8.13900        7.12900
C         17.29100        8.07300        6.84800
C         18.05900        8.22200        8.14800
C         19.55200        8.16000        7.88000
C         20.31800        8.31100        9.18300
C         21.81500        8.24800        8.92400
C         22.57600        8.39900       10.22600
H          0.59200       13.14200       -1.71300
H          0.57900       12.40700       -0.09700
H          0.57900       11.37500       -1.54000
H          2.85400       13.24700       -0.70400
H          2.85300       12.22000       -2.14100
H          2.62500       10.19000       -0.68800
H          2.62800       11.21800        0.74700
H          4.89700       12.07200        0.13200
H          4.89400       11.04400       -1.30500
H          4.65200        9.01900        0.14500
H          4.65500       10.04800        1.58200
H          6.92400       10.90300        0.96500
H          6.92000        9.87400       -0.47200
H          6.67700        7.85000        0.97700
H          6.68100        8.87800        2.41400
H          8.94900        9.73200        1.79800
H          8.94600        8.70700        0.36000
H          8.69800        6.67700        1.80500
H          8.70400        7.70500        3.24500
H         10.92400        8.56800        2.61700
H         10.96800        7.53800        1.18700
H         10.74100        5.49700        2.62800
H         10.71500        6.50700        4.05800
H         13.00300        6.33400        2.02600
H         12.99700        5.59700        3.63000
H         12.85200        8.60900        3.03000
H         14.24400        7.73400        3.55100
H         11.63700        8.00700        5.25700
H         13.17500        8.18000        7.06900
H         15.33300        8.79200        5.14900
H         15.29700        7.02800        5.37400
H         15.51400        7.34100        7.82400
H         15.54900        9.09600        7.60100
H         17.57900        8.87000        6.15000
H         17.54300        7.11800        6.37100
H         17.76900        7.42400        8.84200
H         17.80200        9.17600        8.62200
H         19.83800        8.95700        7.18300
H         19.80500        7.20400        7.40500
H         20.02400        7.51500        9.87900
H         20.05900        9.26600        9.65500
H         22.10800        9.04500        8.23000
H         22.07300        7.29200        8.45400
H         22.34400        9.35800       10.69900
H         23.65300        8.35400       10.04200
H         22.30900        7.59900       10.92300
