23
2756-85-6.pdb
N         -2.36700       -0.05000        0.03000
C         -0.93800       -0.04900       -0.43200
C         -0.27900        1.24700        0.06800
C          1.22500        1.27400       -0.20000
C          1.92400        0.05000        0.38100
C          1.29600       -1.25700       -0.09300
C         -0.22000       -1.29000        0.12200
C         -0.98700       -0.03800       -1.99000
O         -2.15200        0.51900       -2.42500
O         -0.12300       -0.44000       -2.74800
H         -2.37200        0.00200        1.05300
H         -2.76300       -0.97600       -0.17300
H         -0.43700        1.35200        1.15000
H         -0.74000        2.12500       -0.40400
H          1.65600        2.18200        0.23700
H          1.41100        1.32800       -1.27900
H          1.88100        0.09500        1.47500
H          2.98500        0.06800        0.10400
H          1.75500       -2.09600        0.44400
H          1.52800       -1.41000       -1.15200
H         -0.40200       -1.36400        1.20300
H         -0.62500       -2.20500       -0.32600
H         -2.68000        0.70900       -1.61000
