20
27583-37-5.pdb
C          0.90000        0.01300       -0.08800
C          2.41900        0.03800       -0.00900
C          2.99900       -1.24100        0.60800
C          4.26700       -0.82800        1.36500
C          4.41800        0.68100        1.16600
O          5.31700        0.93900        0.09100
C          2.99700        1.17200        0.84900
O          2.24300        1.36800        2.04100
H          0.56500       -0.80100       -0.74000
H          0.52000        0.95400       -0.50000
H          0.44000       -0.13900        0.89400
H          2.81700        0.13400       -1.02800
H          3.22700       -1.97700       -0.17100
H          2.29300       -1.71500        1.30200
H          5.13900       -1.38600        1.00800
H          4.13300       -1.05600        2.42900
H          4.82600        1.15300        2.06500
H          5.02200        0.44600       -0.69300
H          3.00500        2.11500        0.29300
H          2.19100        0.52600        2.52300
