19
2762-32-5.pdb
O          1.13900       -0.22100        0.12300
C          2.46000        0.06100       -0.03300
O          2.92700        1.18000        0.09800
C          3.26000       -1.18300       -0.42000
C          3.47300       -1.15700       -1.94800
N          4.12600       -2.37400       -2.47100
C          3.38100       -3.56300       -2.02300
C          3.17400       -3.60400       -0.49600
N          2.50300       -2.39800        0.03200
H          1.03400       -1.19200       -0.02700
H          4.21900       -1.15300        0.11300
H          4.08500       -0.28900       -2.22200
H          2.51200       -1.02200       -2.46500
H          5.07400       -2.42000       -2.09500
H          3.93100       -4.45700       -2.33800
H          2.41100       -3.59400       -2.53300
H          4.14400       -3.72600        0.00300
H          2.56900       -4.48100       -0.23900
H          2.55600       -2.43900        1.05500
