21
2768-42-5.pdb
O          2.78400       -0.18100        1.13600
C          2.34800        0.07600       -0.19900
C          0.86600        0.43300       -0.26400
C         -0.09200       -0.60400        0.29400
O          0.32900       -1.22900        1.31100
O         -1.20600       -0.68900       -0.29600
C          2.83100       -1.03700       -1.11000
C          3.75300       -0.76300       -2.13500
C          4.22000       -1.78000       -2.97200
C          3.77400       -3.08700       -2.79900
C          2.87000       -3.38000       -1.78200
C          2.40900       -2.36400       -0.94200
H          2.04300       -0.70800        1.52800
H          2.88400        0.98900       -0.49300
H          0.69600        1.32800        0.35100
H          0.58300        0.68400       -1.29300
H          4.11900        0.25000       -2.27900
H          4.93500       -1.54900       -3.75700
H          4.13100       -3.88000       -3.44900
H          2.51700       -4.39600       -1.63000
H          1.71800       -2.62400       -0.14300
