13
2770-75-4.pdb
N          1.14200       -0.05300        0.10400
C          2.49400       -0.08900        0.02500
N          3.12100       -1.21500       -0.00300
C          4.48900       -1.21800       -0.05900
S          5.41600       -2.61600       -0.09300
N          5.14400       -0.01800       -0.08900
C          4.49200        1.17200       -0.06700
S          5.29900        2.62400       -0.09300
N          3.13700        1.10500       -0.02000
H          0.70600       -0.94700       -0.09700
H          0.65400        0.73900       -0.29200
H          6.15400       -0.02900       -0.11600
H          2.62000        1.97000        0.02700
