30
2777-65-3.pdb
O          1.16000       -0.04000        0.04400
C          2.41200        0.08900       -0.06700
O          3.07000        0.90600       -0.77200
C          3.22000       -0.89600        0.78300
C          4.72300       -0.72400        0.63400
C          5.48700       -1.72000        1.49400
C          6.98500       -1.51700        1.31900
C          7.75700       -2.50800        2.17400
C          9.25600       -2.30400        1.99800
C         10.02800       -3.29900        2.86000
C         11.54300       -3.11600        2.70400
C         12.29600       -4.09600        3.55000
C         12.89000       -4.89500        4.24000
H          2.93300       -1.91500        0.49500
H          2.93300       -0.76000        1.83300
H          5.01000        0.29600        0.91900
H          5.01000       -0.85600       -0.41600
H          5.21700       -2.74500        1.21200
H          5.21700       -1.59100        2.54900
H          7.25900       -0.49200        1.60000
H          7.25900       -1.64500        0.26400
H          7.48600       -3.53300        1.89200
H          7.48600       -2.37900        3.22900
H          9.52400       -1.27800        2.27900
H          9.52400       -2.43400        0.94300
H          9.74600       -4.32200        2.57800
H          9.74400       -3.17000        3.91200
H         11.80100       -2.08200        2.97600
H         11.80400       -3.23200        1.64200
H         13.42000       -5.59500        4.84400
