22
27813-02-1.pdb
C          2.37000       -0.55000       -1.25400
C          2.57900        0.05900        0.12900
C          1.24700        0.58900        0.67400
O          1.42000        1.16900        1.96400
O          3.06900       -0.95600        1.03600
C          4.40100       -1.20700        0.95200
O          5.18100       -0.63800        0.19900
C          4.80900       -2.29200        1.89200
C          3.82000       -2.98400        2.77700
C          6.11100       -2.63300        1.91100
H          1.98900        0.19300       -1.96100
H          1.66200       -1.38500       -1.20700
H          3.30400       -0.95700       -1.65500
H          3.29400        0.89100        0.09200
H          0.50700       -0.21200        0.77000
H          0.84100        1.36200        0.01300
H          1.76100        0.46100        2.54000
H          2.80500       -2.58900        2.69400
H          4.11800       -2.88600        3.82600
H          3.77400       -4.05100        2.53000
H          6.84200       -2.14300        1.27300
H          6.48000       -3.41500        2.56600
