20
27810-64-6.pdb
O          1.07000        0.05300        0.47600
C          2.39600       -0.03700        0.22400
O          2.92300       -1.07100       -0.14600
C          3.13100        1.24400        0.43200
C          2.77900        2.03700        1.54000
C          3.44800        3.22900        1.79800
C          4.49200        3.62500        0.96800
C          4.88100        2.83700       -0.12800
C          5.94800        3.21600       -0.94600
N          6.38500        2.52000       -2.01700
C          5.72800        1.37900       -2.29400
C          4.65400        0.90800       -1.55300
C          4.20300        1.63100       -0.42400
H          0.73000        0.95200        0.63100
H          2.00400        1.71800        2.23500
H          3.17300        3.83900        2.65400
H          5.01800        4.55200        1.19100
H          6.50900        4.12700       -0.75200
H          6.09900        0.82700       -3.15400
H          4.19200       -0.02500       -1.86100
