14
27828-71-3.pdb
O         -2.28000        0.00700        0.03900
C         -0.91600       -0.01400        0.02700
C         -0.15100        1.14400        0.00400
N          1.19900        1.15800       -0.01800
C          1.80600       -0.06100       -0.01200
C          1.13400       -1.27900        0.01900
C         -0.26700       -1.23800        0.03700
C          1.89700       -2.57200        0.03200
O          3.16500       -2.49300        0.01300
O          1.21900       -3.64600        0.06200
H         -2.57100        0.93000       -0.01900
H         -0.60800        2.12700        0.00500
H          2.89400       -0.03400       -0.03200
H         -0.83100       -2.16700        0.05800
