20
2782-91-4.pdb
C          1.09400       -0.13400        0.03700
N          2.56100       -0.10800        0.00500
C          3.14400       -0.94900       -1.03700
C          3.26900        0.84700        0.77000
S          2.47400        1.91900        1.82700
N          4.65900        0.90800        0.61000
C          5.52000       -0.26800        0.55700
C          5.40200        2.14500        0.87000
H          0.69900       -0.99300       -0.51300
H          0.71600        0.78400       -0.43000
H          0.72800       -0.20000        1.06500
H          2.39700       -1.19500       -1.79900
H          3.46300       -1.89200       -0.58000
H          3.97700       -0.45500       -1.53700
H          4.97300       -1.19800        0.69600
H          6.25500       -0.20900        1.36700
H          6.05300       -0.26300       -0.39800
H          4.77100        3.03500        0.80300
H          6.19400        2.24000        0.12200
H          5.84800        2.09100        1.86900
