23
2785-89-9.pdb
C          1.13900        0.59000        0.55300
C          2.49800        0.03900        0.14700
C          2.92200       -1.10300        1.03400
C          2.56500       -2.41600        0.71500
C          2.91400       -3.46700        1.56500
C          3.62300       -3.21600        2.74400
O          3.92500       -4.28000        3.54900
C          3.99900       -1.91100        3.07900
O          4.69600       -1.48200        4.17800
C          5.10200       -2.45100        5.13300
C          3.64200       -0.86500        2.21500
H          0.85200        1.41600       -0.10500
H          1.15300        0.96400        1.58200
H          0.36300       -0.18000        0.48800
H          3.25000        0.83700        0.18300
H          2.46200       -0.29800       -0.89600
H          2.00600       -2.62800       -0.19400
H          2.61900       -4.47400        1.29100
H          3.53900       -5.08500        3.16900
H          5.62900       -1.92400        5.93500
H          5.80900       -3.16600        4.69900
H          4.24000       -2.94700        5.58900
H          3.92500        0.15200        2.47800
