23
2785-98-0.pdb
C          1.26600       -0.07100       -0.39800
O          2.51400        0.13600        0.25400
C          3.20600       -0.97600        0.64200
C          2.78500       -2.29400        0.49700
C          3.59600       -3.34800        0.93600
C          4.84000       -3.10000        1.53100
O          5.67400       -4.09000        1.99000
C          5.23900       -5.44100        1.86200
C          5.27400       -1.76800        1.67600
C          4.44500       -0.72100        1.23200
C          6.58400       -1.36100        2.27700
O          7.38400       -2.36500        2.69300
O          6.92000       -0.19100        2.38100
H          0.87600        0.90800       -0.69300
H          0.54100       -0.52900        0.28200
H          1.38700       -0.66700       -1.30800
H          1.82900       -2.54000        0.04600
H          3.21800       -4.35600        0.79300
H          5.99400       -6.07700        2.33300
H          5.16600       -5.72800        0.80900
H          4.29300       -5.60700        2.39000
H          4.76800        0.31300        1.34400
H          6.98800       -3.24900        2.54900
