36
27893-41-0.pdb
C          0.97100        0.08400        0.11400
C          2.49100        0.07100        0.09300
C          3.04200        1.06800       -0.92400
C          4.57200        1.05200       -0.94500
C          5.10900        2.05200       -1.96400
C          6.63700        2.06500       -2.00500
C          7.12000        3.07900       -3.03500
O          8.54700        3.10500       -3.05700
C          9.10800        3.97700       -3.95400
C          8.40000        4.81000       -4.82700
C          9.08100        5.65300       -5.70800
C         10.47500        5.66800       -5.71800
C         11.19400        6.55100       -6.65800
O         10.60400        7.28500       -7.44400
C         11.19400        4.84700       -4.84700
C         10.50500        4.00400       -3.96800
H          0.59700       -0.63600        0.84700
H          0.56300       -0.18400       -0.86600
H          0.59100        1.07500        0.38400
H          2.84000       -0.93900       -0.15000
H          2.86800        0.31400        1.09300
H          2.68800        2.07700       -0.68000
H          2.65800        0.82600       -1.92300
H          4.92800        0.04500       -1.19300
H          4.95700        1.29800        0.05200
H          4.74300        3.05700       -1.71800
H          4.71900        1.80500       -2.95900
H          7.02500        1.07000       -2.25600
H          7.04800        2.31400       -1.01900
H          6.73700        4.07100       -2.76200
H          6.73800        2.78700       -4.02200
H          7.31500        4.83000       -4.85300
H          8.51800        6.29400       -6.38300
H         12.29500        6.51800       -6.62200
H         12.28100        4.84900       -4.84100
H         11.06100        3.36000       -3.28900
