33
27973-36-0.pdb
C          6.29700        1.08400       -0.65800
C          5.46000        0.27100        0.31700
O          5.32600       -1.04800       -0.23400
C          4.29400       -1.16000       -1.12600
O          3.29300       -0.48200       -1.10600
C          4.67400       -2.16700       -2.14400
C          4.21000       -2.21900       -3.41200
C          3.29000       -1.28300       -4.12300
C          2.76000       -0.04100       -3.81200
C          1.90100        0.58600       -4.71300
C          1.60800       -0.00900       -5.94000
C          2.18600       -1.23100       -6.29200
C          3.03200       -1.85700       -5.38400
C          3.80300       -3.08300       -5.53600
C          3.89700       -3.93000       -6.63100
C          4.74500       -5.03600       -6.54600
C          5.47900       -5.28400       -5.37500
C          5.38300       -4.43100       -4.26800
C          4.54600       -3.32700       -4.35800
H          6.44600        2.10200       -0.29600
H          5.80700        1.12600       -1.63900
H          7.27300        0.61300       -0.81400
H          4.49500        0.75400        0.49500
H          5.98300        0.20100        1.28000
H          5.38800       -2.89800       -1.78700
H          2.99000        0.49200       -2.90400
H          1.47000        1.55000       -4.44900
H          0.94100        0.49800       -6.63200
H          1.97600       -1.66700       -7.26000
H          3.33900       -3.74100       -7.54200
H          4.84100       -5.70700       -7.39700
H          6.13300       -6.15300       -5.33300
H          5.95900       -4.64000       -3.37400
