24
2806-97-5.pdb
C          0.96100        0.18400        0.18900
C          2.47200        0.12900        0.03300
O          3.03200        1.40600        0.33400
C          4.46600        1.38600        0.34600
O          4.99500        1.04400       -0.94400
C          6.40900        0.87000       -0.91900
C          6.90400        0.53500       -2.31100
C          4.94600        2.72300        0.74200
C          5.38100        3.91800        1.03000
C          5.88800        5.31100        1.36600
H          0.50700       -0.76300       -0.12000
H          0.53400        0.99000       -0.41500
H          0.68300        0.38000        1.22900
H          2.71800       -0.14200       -1.00000
H          2.87500       -0.63100        0.71100
H          4.79000        0.64200        1.08600
H          6.66700        0.05700       -0.22900
H          6.90700        1.78500       -0.59000
H          6.43800       -0.38300       -2.68200
H          7.98900        0.40500       -2.31000
H          6.64800        1.33500       -3.01500
H          5.45200        5.64900        2.31000
H          5.60700        6.01100        0.57400
H          6.97700        5.29900        1.46000
