22
28169-46-2.pdb
C          2.54600       -0.03200        0.03100
C          1.03600        0.02000        0.03000
C          0.30600        1.23400        0.00100
C         -1.10300        1.21400       -0.03600
C         -1.79900       -0.00200       -0.01900
C         -1.10900       -1.21400        0.00900
C          0.29000       -1.18600        0.02500
N          0.95700       -2.48300        0.01800
O          1.65300       -2.76600        1.00000
O          0.74500       -3.21500       -0.95500
N         -3.26600       -0.00200       -0.03400
O         -3.83300        1.09700        0.00300
O         -3.84000       -1.09700       -0.05900
C          0.97300        2.56600       -0.09300
O          0.37900        3.53100        0.64200
O          1.95300        2.77400       -0.78300
H          3.02900        0.94300        0.08300
H          2.90000       -0.52900       -0.87900
H          2.90700       -0.58000        0.90600
H         -1.65900        2.14800       -0.12000
H         -1.63700       -2.16700        0.00300
H         -0.35200        3.27000        1.23100
