18
2818-66-8.pdb
N          1.06100       -0.03000       -0.16700
C          2.45600       -0.01600       -0.02700
C          3.17500       -1.23600       -0.09200
C          4.57600       -1.27000       -0.11500
C          5.21800       -0.05800       -0.12200
N          6.58000        0.23000       -0.19700
C          6.73100        1.62100       -0.24000
S          8.15400        2.44400       -0.38100
N          5.45300        2.18500       -0.16200
C          4.52200        1.14900       -0.09900
C          3.14800        1.20300       -0.06700
H          0.61800       -0.88400        0.15600
H          0.59900        0.80300        0.18300
H          2.63100       -2.17700       -0.13600
H          5.11500       -2.20800       -0.15800
H          7.33200       -0.43700       -0.25800
H          5.25100        3.17200       -0.19200
H          2.62400        2.15000       -0.09000
