34
2818-58-8.pdb
O          1.26400       -3.01600        0.70200
C          2.39200       -2.65400       -0.10000
C          2.86200       -1.26400        0.32600
O          3.41000       -1.37300        1.65000
C          3.57000       -0.08900        2.26400
O          3.97700       -0.23300        3.63100
C          3.10300       -0.86600        4.47600
C          1.84800       -1.37900        4.13300
C          1.06800       -2.04500        5.08200
C          1.53200       -2.19500        6.38700
C          2.77400       -1.66900        6.74200
C          3.55100       -1.00600        5.79000
C          4.64600        0.71700        1.49200
O          4.73600        2.06600        1.98400
C          4.32800        0.71400       -0.02200
O          5.42700        1.25000       -0.76600
C          3.97400       -0.68800       -0.55000
O          5.14800       -1.51600       -0.49600
H          1.32800       -3.97200        0.87500
H          2.06700       -2.65900       -1.14400
H          3.17400       -3.40600        0.04800
H          1.99100       -0.59500        0.35200
H          2.62800        0.47700        2.24500
H          1.44500       -1.30200        3.12900
H          0.10500       -2.45900        4.79400
H          0.93200       -2.72400        7.11900
H          3.13800       -1.78000        7.76000
H          4.52300       -0.60500        6.07400
H          5.63400        0.27300        1.66200
H          4.05100        2.60600        1.55500
H          3.48300        1.38700       -0.20800
H          6.11700        0.55700       -0.77400
H          3.67200       -0.63000       -1.60100
H          5.17300       -1.93100        0.39000
