23
28281-49-4.pdb
C          0.90100       -0.68200        0.10500
C          2.40100       -0.91600        0.05000
C          2.97300       -0.64300       -1.33000
O          2.26900       -0.31500       -2.28300
C          4.44900       -0.77800       -1.52800
C          4.97900       -0.51200       -2.81300
C          6.35300       -0.60100       -3.05700
C          7.16600       -0.95300       -2.00300
O          8.51800       -1.07800       -2.04700
C          8.80500       -1.42800       -0.67700
O          7.62300       -1.54600        0.14300
C          6.65500       -1.21900       -0.75400
C          5.30500       -1.14500       -0.48200
H          0.52500       -0.85800        1.11700
H          0.37400       -1.35600       -0.57900
H          0.65300        0.34600       -0.17900
H          2.60900       -1.95700        0.31900
H          2.88400       -0.24900        0.77200
H          4.31300       -0.23100       -3.62900
H          6.76400       -0.39400       -4.03900
H          9.45300       -0.65600       -0.24600
H          9.33800       -2.38500       -0.66300
H          4.95600       -1.36300        0.52000
