22
28315-93-7.pdb
O          1.06600        0.07900       -0.02200
C          2.43400        0.07200       -0.00600
C          3.12400       -1.14000        0.00500
C          4.51800       -1.14200        0.00800
C          5.21400        0.06600       -0.01400
C          4.51400        1.27900       -0.04000
C          5.28200        2.54900       -0.13200
O          6.50800        2.54600       -0.06500
C          4.50000        3.81200       -0.39700
C          3.19000        3.79100        0.37000
C          2.34000        2.59500       -0.04400
C          3.11000        1.29900       -0.01100
H          0.74600       -0.83800       -0.02500
H          2.59600       -2.08900        0.00700
H          5.06400       -2.08200        0.01500
H          6.30200        0.06000       -0.02900
H          4.33200        3.89700       -1.47700
H          5.09900        4.67000       -0.07400
H          2.63500        4.71900        0.19400
H          3.39800        3.73900        1.44700
H          1.95700        2.74700       -1.06100
H          1.48000        2.54000        0.63400
