30
2832-10-2.pdb
C          3.11600        1.70100       -1.76700
C          4.31100        1.36000       -0.89400
O          4.99500        0.25300       -1.50300
C          4.57400       -0.98500       -1.12200
O          3.84600       -1.22900       -0.17000
C          5.00800       -2.02100       -2.13500
C          6.52000       -2.08100       -2.30700
C          6.94000       -2.99000       -3.45100
C          7.14800       -4.31900       -3.31300
C          7.61700       -5.30300       -4.35500
O          6.93400       -4.98500       -2.10700
C          7.23900       -2.29300       -4.76500
C          6.46800       -1.05100       -5.15900
O          8.11600       -2.70500       -5.52400
H          2.57200        2.56500       -1.37900
H          2.42900        0.85000       -1.83200
H          3.44300        1.91700       -2.79000
H          4.00900        1.14600        0.13700
H          5.00600        2.20500       -0.86500
H          4.48700       -1.78100       -3.07200
H          4.62200       -2.98900       -1.80700
H          6.97800       -2.41100       -1.36800
H          6.94900       -1.08100       -2.45800
H          7.68000       -4.91300       -5.36900
H          6.92700       -6.15400       -4.39600
H          8.60500       -5.68900       -4.07600
H          6.65000       -4.38100       -1.40500
H          5.83300       -0.65700       -4.36800
H          5.84000       -1.27100       -6.02500
H          7.18800       -0.26700       -5.41300
