18
2835-98-5.pdb
C          1.08900       -0.00100       -0.03000
C          2.58300       -0.03000       -0.15700
C          3.33200        1.15300       -0.14200
C          4.72800        1.11400       -0.25500
C          5.39500       -0.09800       -0.43700
N          6.80200       -0.14400       -0.48300
C          4.63800       -1.27700       -0.38100
O          5.25200       -2.49800       -0.42100
C          3.25100       -1.25400       -0.26000
H          0.70200        1.02200       -0.07700
H          0.78200       -0.43900        0.92500
H          0.63000       -0.56500       -0.84900
H          2.83800        2.11600       -0.03600
H          5.28300        2.04800       -0.22200
H          7.20500        0.76400       -0.70500
H          7.13900       -0.84100       -1.13900
H          6.17500       -2.31800       -0.15900
H          2.70200       -2.19000       -0.22500
