18
2835-95-2.pdb
C          0.94500       -0.05000        0.10900
C          2.44200       -0.04000        0.00500
C          3.14400        1.16900       -0.03000
C          4.53800        1.17700       -0.14800
C          5.25200       -0.01600       -0.27700
N          6.65300       -0.00000       -0.28500
C          4.56000       -1.22500       -0.16800
C          3.16900       -1.23100       -0.05400
O          2.48700       -2.41600        0.00900
H          0.54200        0.96400        0.19400
H          0.62700       -0.60900        0.99500
H          0.50900       -0.50800       -0.78500
H          2.61500        2.11600        0.04400
H          5.06100        2.13000       -0.14300
H          7.04500        0.85200       -0.67400
H          7.06900       -0.83100       -0.69300
H          5.11400       -2.15800       -0.17800
H          3.12800       -3.14400       -0.03800
