11
28466-26-4.pdb
N          2.12600       -0.04600       -0.03100
C          0.78800       -0.01000       -0.01600
C          0.01700        1.11900       -0.00900
N         -1.27600        0.67700        0.00900
N         -1.39100       -0.66400        0.01400
C         -0.12100       -1.08300       -0.00500
H          2.69400        0.79200        0.03800
H          2.64900       -0.91200        0.05700
H          0.25300        2.17200       -0.01600
H         -2.12600        1.23100        0.02000
H          0.08300       -2.14500       -0.00900
