21
28485-17-8.pdb
C          1.91200        1.34300        1.10300
C          2.45900        0.14800        0.34200
O          3.16900       -0.67400        1.27700
C          4.47000       -0.35700        1.46800
O          5.13600        0.37800        0.74900
C          4.93000       -0.84600        2.77800
C          5.90400       -0.14000        3.37700
N          6.33900       -0.44400        4.64000
C          5.81200       -1.45400        5.39700
O          6.21300       -1.69500        6.52900
N          4.81100       -2.16900        4.80200
C          4.34400       -1.98300        3.52400
O          3.51000       -2.74700        3.04700
H          1.33600        2.00200        0.45100
H          2.72500        1.91800        1.56000
H          1.27100        1.00500        1.92600
H          3.09100        0.46000       -0.49700
H          1.63700       -0.44700       -0.06800
H          6.37900        0.71800        2.90900
H          7.06700        0.10800        5.08000
H          4.42500       -2.93900        5.32800
