39
2850-36-4.pdb
C          2.17100       -0.27500       -3.23400
C          2.69400       -1.19300       -2.14100
C          3.88900       -0.56000       -1.42800
C          4.49500       -1.46300       -0.34300
N          4.94600       -2.76300       -0.83600
C          5.98600       -2.77600       -1.79600
O          6.55900       -1.73600       -2.13300
N          6.33600       -4.01600       -2.34900
C          7.38600       -4.09100       -3.36400
C          6.98500       -4.77600       -4.67600
C          5.85800       -4.07200       -5.43000
C          5.53000       -4.82700       -6.71200
C          5.75500       -5.15400       -1.83700
N          5.99600       -6.43800       -2.22300
C          5.19800       -7.16700       -1.47100
N          4.48700       -6.39500       -0.59000
C          4.84300       -5.10200       -0.83300
C          4.40600       -3.89900       -0.22500
O          3.64300       -3.89600        0.73600
H          1.31500       -0.73100       -3.74000
H          2.94600       -0.08300       -3.98400
H          1.85100        0.68600       -2.81900
H          2.97800       -2.15000       -2.59400
H          1.89400       -1.39800       -1.42000
H          3.57700        0.38200       -0.96100
H          4.64700       -0.29100       -2.17100
H          3.74700       -1.58900        0.45000
H          5.35500       -0.95700        0.11000
H          8.22400       -4.64000       -2.91500
H          7.76500       -3.09000       -3.59400
H          6.69900       -5.81700       -4.49500
H          7.87200       -4.81500       -5.32100
H          6.15300       -3.04600       -5.67800
H          4.95600       -4.01300       -4.81100
H          6.40500       -4.88000       -7.36900
H          4.72400       -4.32900       -7.25900
H          5.21000       -5.85000       -6.49000
H          5.09300       -8.24400       -1.51700
H          3.81300       -6.71300        0.09300
