21
2861-28-1.pdb
O          3.01200       -1.27600        1.54700
C          2.35700       -0.78300        0.47600
O          1.19400       -0.41000        0.56000
C          3.10800       -0.80400       -0.84000
C          4.60600       -0.63900       -0.73000
C          5.17300        0.65600       -0.67300
C          6.54800        0.83000       -0.49000
C          7.32400       -0.29900       -0.34800
O          8.66400       -0.32000       -0.11900
C          8.89400       -1.73900        0.01100
O          7.71200       -2.53500       -0.22200
C          6.78300       -1.56000       -0.41100
C          5.43700       -1.76700       -0.61800
H          3.93600       -1.54000        1.38300
H          2.71300        0.00900       -1.46300
H          2.87000       -1.74300       -1.35200
H          4.54000        1.53800       -0.76600
H          6.98900        1.82000       -0.44500
H          9.25700       -1.94300        1.02600
H          9.66600       -2.03900       -0.70600
H          5.04200       -2.77700       -0.66400
