27
2873-97-4.pdb
C          2.79300        1.86300        3.11300
C          2.87500        0.66500        2.20200
O          2.56400       -0.45800        2.60400
C          3.37200        0.87700        0.78500
C          4.90300        0.71500        0.63000
C          5.32300       -0.71600        1.02300
C          5.27900        0.90900       -0.85500
N          5.65600        1.67800        1.45400
C          5.52100        3.04200        1.33900
O          4.72800        3.59300        0.58900
C          6.39700        3.81000        2.25700
C          6.35100        5.14700        2.24600
H          2.35100        1.56400        4.06700
H          2.16100        2.63100        2.66100
H          3.78800        2.25900        3.31400
H          3.02000        1.85600        0.44300
H          2.85100        0.14600        0.15200
H          4.78600       -1.46400        0.42900
H          5.13100       -0.92200        2.08100
H          6.39700       -0.87100        0.86200
H          4.77400        0.17500       -1.49300
H          6.36000        0.79800       -1.00300
H          5.00400        1.90200       -1.22400
H          6.35100        1.30900        2.09100
H          7.05100        3.27800        2.93600
H          5.69100        5.68700        1.56600
H          6.96800        5.73900        2.91200
