27
2873-90-7.pdb
C          2.00400       -1.16600       -0.89100
C          2.55000       -0.04800       -0.01000
N          3.02400        1.08200       -0.82100
C          2.13500        2.20900       -1.14900
C          0.66200        1.87000       -1.30000
C          4.40600        1.33100       -0.83900
C          5.32000        0.28900       -1.06500
C          6.69700        0.52500       -1.18100
C          7.20100        1.81800       -1.05200
C          6.32400        2.86700       -0.79500
C          4.94700        2.62000       -0.68900
C          8.60200        2.07200       -1.21400
N          9.73300        2.28300       -1.35400
H          1.74700       -2.03900       -0.28300
H          2.73300       -1.47800       -1.64500
H          1.09700       -0.86500       -1.41900
H          3.35100       -0.46200        0.61600
H          1.78000        0.28000        0.69800
H          2.46300        2.62800       -2.11000
H          2.21600        2.99700       -0.39300
H          0.49500        1.08200       -2.03600
H          0.11900        2.75600       -1.64600
H          0.22000        1.57000       -0.34600
H          4.96300       -0.72800       -1.20600
H          7.36400       -0.31000       -1.39100
H          6.69000        3.88600       -0.67900
H          4.30900        3.47200       -0.46900
