21
2874-33-1.pdb
C          1.26100        0.17900        0.92900
O          2.30500       -0.04100       -0.01100
C          2.92400        1.06900       -0.55600
C          2.58500        2.35100       -0.32300
C          3.29800        3.47300       -0.91700
C          2.90100        4.72000       -0.60200
N          3.39800        5.94200       -0.98900
O          2.65900        7.07800       -0.67300
C          4.43200        3.21400       -1.78700
C          4.80700        1.96000       -2.05800
C          4.08200        0.79400       -1.48200
O          4.44700       -0.34300       -1.76700
H          0.88000       -0.79300        1.25200
H          0.43100        0.72900        0.47300
H          1.63700        0.70500        1.81300
H          1.76000        2.59600        0.33700
H          2.06200        4.85300        0.08100
H          3.79900        5.96100       -1.92800
H          2.78500        7.16400        0.29200
H          4.99300        4.04500       -2.21000
H          5.65100        1.72700       -2.70100
