22
28752-82-1.pdb
C          2.07700        2.49600        1.30700
C          2.61000        1.47000        0.63300
C          4.08800        1.26300        0.51000
O          4.43100       -0.03400        0.99600
C          5.42500       -0.13000        1.93300
C          5.22000       -1.16400        2.85900
C          6.12900       -1.39900        3.89600
C          7.25800       -0.59600        4.02600
C          7.48700        0.42500        3.10500
C          6.59000        0.64200        2.04600
C          6.98900        1.65500        1.05200
O          7.62300        2.65500        1.36500
H          1.00000        2.63500        1.36300
H          2.69600        3.22000        1.83000
H          1.96100        0.76900        0.11700
H          4.59600        2.07200        1.04000
H          4.36500        1.30400       -0.55000
H          4.33500       -1.79300        2.77900
H          5.95200       -2.20500        4.60300
H          7.96800       -0.77200        4.83000
H          8.38200        1.03800        3.19800
H          6.67600        1.47800        0.01100
