9
288-13-1.pdb
N         -0.25100       -1.02800        0.00100
C          1.04700       -0.60800       -0.00100
C          1.00200        0.76500       -0.00100
C         -0.37000        1.07500        0.00200
N         -1.13700       -0.01800        0.00300
H         -0.60500       -1.97900        0.00200
H          1.86900       -1.31000       -0.00300
H          1.83900        1.44800       -0.00200
H         -0.84200        2.04900        0.00400
