20
2883-45-6.pdb
O          0.88600        0.03100        0.11900
C          2.31400        0.08400        0.01700
C          2.78000        1.55300        0.02600
C          2.24300        2.35100       -1.13600
C          1.45500        3.42500       -0.99700
C          2.92100       -0.66700        1.21600
C          2.56100       -2.12900        1.22900
C          3.44900       -3.13000        1.23200
H          0.52700        0.53100       -0.63500
H          2.60600       -0.40500       -0.92100
H          3.87500        1.59300       -0.01200
H          2.47100        2.02300        0.96800
H          2.53100        2.03000       -2.13500
H          1.14800        3.78400       -0.01800
H          1.09700        3.97300       -1.86300
H          2.54300       -0.23000        2.14900
H          4.01100       -0.54500        1.21600
H          1.49800       -2.36100        1.25800
H          4.51900       -2.94800        1.21700
H          3.11600       -4.16300        1.25900
