31
2883-98-9.pdb
C          0.97700        0.24900       -0.44000
O          2.30500        0.06900        0.04600
C          2.98500       -1.03100       -0.40900
C          2.73200       -1.59000       -1.67200
C          3.47100       -2.68100       -2.15200
O          3.27700       -3.25100       -3.38700
C          2.12000       -2.85300       -4.11400
C          4.50200       -3.21300       -1.36500
C          5.33800       -4.33100       -1.82300
C          5.09400       -5.63300       -1.60900
C          3.95000       -6.23000       -0.85600
C          4.77400       -2.64000       -0.11600
C          4.02800       -1.55600        0.36800
O          4.47100       -1.09900        1.58400
C          3.50900       -0.50500        2.44500
H          0.51300        1.05100        0.14000
H          0.37800       -0.65700       -0.30200
H          0.97700        0.56600       -1.48800
H          1.98100       -1.14000       -2.30800
H          2.04200       -3.48900       -5.00100
H          2.20900       -1.81600       -4.45600
H          1.21000       -2.99700       -3.52200
H          6.20600       -4.03500       -2.40800
H          5.79200       -6.35200       -2.03700
H          3.49800       -5.53300       -0.14500
H          4.29900       -7.09800       -0.28700
H          3.18100       -6.57300       -1.55500
H          5.58600       -3.03200        0.49300
H          3.95800       -0.44600        3.44200
H          2.60600       -1.11900        2.52300
H          3.27900        0.52000        2.14300
