57
2885-00-9.pdb
C          0.89800       -0.00600       -0.10200
C          2.41500       -0.01200       -0.09600
C          2.94500       -0.90600        1.01800
C          4.46700       -0.91400        1.02500
C          4.98400       -1.80800        2.14100
C          6.50400       -1.81500        2.14500
C          7.01700       -2.71400        3.26200
C          8.53600       -2.71600        3.26900
C          9.04900       -3.61200        4.38300
C         10.56700       -3.61700        4.38900
C         11.08100       -4.51300        5.50200
C         12.60100       -4.51900        5.50600
C         13.11800       -5.41500        6.62000
C         14.63700       -5.42200        6.62800
C         15.15400       -6.31900        7.74400
C         16.67700       -6.33300        7.75800
C         17.19600       -7.23300        8.87700
C         18.71900       -7.24400        8.88800
S         19.34000       -8.31300       10.21600
H          0.52300        0.63800       -0.90300
H          0.50700        0.36800        0.85000
H          0.50600       -1.01600       -0.26100
H          2.78500        1.01100        0.04100
H          2.78500       -0.36600       -1.06500
H          2.57200       -1.92800        0.88400
H          2.57500       -0.55200        1.98700
H          4.84600        0.10600        1.16100
H          4.84300       -1.27400        0.05800
H          4.61000       -2.83100        2.00600
H          4.61100       -1.45200        3.10900
H          6.88200       -0.79500        2.28700
H          6.88100       -2.17200        1.18100
H          6.64300       -3.73300        3.12200
H          6.64200       -2.35700        4.22900
H          8.91200       -1.69400        3.41100
H          8.91500       -3.06900        2.30100
H          8.67200       -4.63200        4.24400
H          8.67200       -3.25500        5.34900
H         10.94200       -2.59600        4.52900
H         10.94300       -3.97100        3.42100
H         10.70400       -5.53400        5.36300
H         10.70600       -4.15800        6.47000
H         12.97600       -3.49700        5.64300
H         12.97300       -4.87500        4.53600
H         12.73800       -6.43500        6.48000
H         12.73900       -5.05900        7.58600
H         15.01100       -4.40000        6.76700
H         15.01000       -5.77600        5.66000
H         14.77400       -7.33900        7.60200
H         14.77400       -5.96300        8.70900
H         17.05300       -5.31100        7.89700
H         17.05100       -6.68700        6.79000
H         16.80800       -8.25000        8.72800
H         16.80900       -6.87200        9.83800
H         19.10800       -6.23200        9.04100
H         19.10500       -7.61600        7.93400
H         18.77700       -7.64200       11.23200
