38
28862-79-5.pdb
C          2.74900        1.03600        1.05700
C          2.42200        0.03100       -0.04800
C          0.89800       -0.01100       -0.23900
C          3.12800        0.35800       -1.38300
C          4.67600        0.33100       -1.36200
N          5.29100       -0.92100       -0.90400
C          4.86000       -2.18300       -1.16400
O          4.00400       -2.44800       -1.99000
O          5.50300       -3.06200       -0.36400
C          4.83400       -4.31700       -0.19500
C          5.61100       -5.46600       -0.78300
C          6.58600       -6.12700       -0.02400
C          7.24600       -7.24500       -0.53800
C          6.94700       -7.70300       -1.82000
C          5.99700       -7.03800       -2.59200
C          5.33500       -5.92200       -2.07900
C          5.20700        0.76700       -2.74500
O          5.51400       -0.24500       -3.57700
O          5.26800        1.94100       -3.09300
H          2.25400        0.75000        1.99200
H          2.40100        2.04100        0.79200
H          3.82200        1.08800        1.25600
H          2.73800       -0.96500        0.28300
H          0.45900        0.99300       -0.21300
H          0.43200       -0.59300        0.56400
H          0.61700       -0.47600       -1.19000
H          2.79800        1.34900       -1.72200
H          2.76700       -0.33700       -2.15100
H          5.04400        1.08500       -0.66200
H          6.13100       -0.86500       -0.34300
H          3.80600       -4.31300       -0.58300
H          4.73000       -4.47100        0.88500
H          6.82300       -5.78900        0.98300
H          7.98700       -7.76500        0.06400
H          7.45300       -8.58000       -2.21600
H          5.76200       -7.39700       -3.59100
H          4.58400       -5.42100       -2.68900
H          5.25300       -1.11900       -3.22200
