29
28874-45-5.pdb
C          2.88000       -1.21300       -0.87000
C          2.29100        0.06000       -0.20000
C          2.97200        1.26800       -0.88200
C          2.41900        2.64400       -0.53000
C          2.85000        2.80600        0.91700
C          3.63700        1.51500        1.17100
O          4.21800        1.31400       -0.14600
C          2.73900        0.24800        1.31200
C          3.61100       -0.90700        1.85600
C          1.74000        0.52400        2.44700
O          0.62700       -0.21800        2.51200
O          1.98700        1.31700        3.34800
C          0.79900       -0.08500       -0.40300
O          0.20600        0.62500       -1.36700
O          0.15900       -0.91200        0.24200
H          3.97500       -1.20300       -0.89700
H          2.54100       -1.29500       -1.91000
H          2.55700       -2.12800       -0.36100
H          3.15300        1.14200       -1.95400
H          1.34500        2.77000       -0.67000
H          2.92300        3.40800       -1.13600
H          2.00000        2.97200        1.58100
H          3.51000        3.67700        1.00700
H          4.41200        1.61800        1.93500
H          4.51500       -1.06800        1.26100
H          3.04400       -1.84400        1.89600
H          3.94800       -0.69900        2.87900
H          0.41900       -0.82700        1.76500
H          0.74500        1.19800       -1.94000
