26
28888-44-0.pdb
C          1.02800       -0.62100       -0.14200
O          2.37400       -0.18300        0.00400
C          3.11700       -0.73300        1.01500
C          2.80300       -1.98400        1.57400
C          3.62300       -2.54900        2.55100
N          3.31700       -3.80500        3.07900
C          4.09800       -4.43600        4.00100
O          3.80700       -5.54800        4.43200
N          5.21600       -3.76800        4.41200
C          5.61100       -2.51800        4.00100
O          6.61600       -1.97300        4.44100
C          4.75500       -1.87000        2.98700
C          5.07200       -0.62200        2.45600
C          4.26400       -0.04600        1.46300
O          4.74200        1.17300        1.05900
C          4.04400        1.89600        0.05700
H          0.55200        0.01500       -0.89500
H          0.47300       -0.50700        0.79500
H          0.98300       -1.65100       -0.50900
H          1.94000       -2.54800        1.23700
H          2.49400       -4.31200        2.77900
H          5.79800       -4.23200        5.09200
H          5.95700       -0.09200        2.80300
H          4.56300        2.85000       -0.08400
H          3.02200        2.13200        0.37000
H          4.07200        1.36800       -0.90100
