10
2892-51-5.pdb
O          1.06800        0.04900       -0.09300
C          2.35100        0.06100       -0.09000
C          3.31300        1.03900       -0.09000
O          3.30400        2.32200       -0.09200
C          4.40700        0.03800       -0.08400
O          5.61200        0.00200       -0.07800
C          3.37000       -1.01700       -0.08800
O          3.42700       -2.22200       -0.08800
H          0.71100        0.95300       -0.09100
H          2.39500        2.66500       -0.09900
