26
2893-05-2.pdb
C          0.62300        0.69900        1.69500
C          2.08400        0.78100        2.13400
C          2.49500       -0.51700        2.81700
C          2.99200        1.08900        0.93900
O          2.54500        1.20500       -0.20500
C          4.48100        1.24400        1.18900
C          4.83800        2.39400        2.09400
C          5.47600        2.16600        3.32200
C          5.88400        3.24000        4.11600
C          5.65400        4.54700        3.69300
C          4.99600        4.78500        2.48900
C          4.58600        3.71300        1.69400
H         -0.03500        0.50900        2.54900
H          0.47100       -0.10700        0.96500
H          0.30100        1.63400        1.22400
H          2.17400        1.61200        2.84300
H          2.51900       -1.35200        2.10700
H          1.80200       -0.77500        3.62600
H          3.49300       -0.43600        3.26300
H          4.97800        1.40100        0.22300
H          4.87300        0.29500        1.57000
H          5.67900        1.15300        3.66200
H          6.39400        3.05600        5.05700
H          5.99500        5.38300        4.30000
H          4.81500        5.80500        2.16000
H          4.08600        3.91700        0.74700
