20
2896-60-8.pdb
C          1.01200       -0.40600        0.25800
C          2.45800        0.03600        0.07800
C          2.91100        0.89900        1.22900
C          2.73200        2.29000        1.16300
C          3.06100        3.10500        2.24600
C          3.57400        2.52800        3.40300
O          3.87700        3.28400        4.49700
C          3.78500        1.15700        3.48500
C          3.45100        0.34900        2.40000
O          3.63700       -1.00300        2.47200
H          0.70700       -1.05800       -0.56600
H          0.33400        0.45500        0.27800
H          0.87900       -0.95700        1.19500
H          2.55800        0.59400       -0.86200
H          3.10700       -0.84100       -0.02600
H          2.31900        2.74200        0.26300
H          2.90200        4.17600        2.17100
H          3.60400        4.20100        4.32300
H          4.19100        0.73900        4.40000
H          4.06500       -1.21000        3.32100
