17
28989-50-6.pdb
N          2.09300        0.03300        0.30400
C          0.77200       -0.16800        0.17100
S         -0.29400        1.13600       -0.15700
C         -1.60600        0.03600       -0.21200
C         -1.15200       -1.24600        0.02700
N          0.21300       -1.34900        0.25200
C         -2.03200       -2.46100        0.03300
S         -3.70400       -2.46500       -0.32500
C         -3.81100       -4.15900       -0.12100
C         -2.60100       -4.71200        0.23700
C         -1.57200       -3.72900        0.32600
H          2.48500        0.86600       -0.11500
H          2.67000       -0.79400        0.19800
H         -2.61000        0.37900       -0.41200
H         -4.75500       -4.66600       -0.26900
H         -2.45900       -5.77000        0.42100
H         -0.54200       -3.94200        0.58900
