26
28994-41-4.pdb
O          0.41600        0.80500        2.43600
C         -0.00400        0.33700        1.22100
C         -0.69300       -0.87400        1.14900
C         -1.11300       -1.36000       -0.08900
C         -0.84200       -0.63300       -1.24800
C         -0.15800        0.58000       -1.16700
C          0.26700        1.08800        0.07100
C          1.02000        2.40000        0.12600
C          2.52000        2.25400       -0.01500
C          3.12700        2.24400       -1.27800
C          4.50800        2.07100       -1.40400
C          5.29600        1.90800       -0.26500
C          4.70700        1.92800        0.99600
C          3.32600        2.09900        1.12200
H          0.35700        0.07800        3.07700
H         -0.91800       -1.44700        2.04300
H         -1.64800       -2.30200       -0.15300
H         -1.16400       -1.01300       -2.21600
H          0.04800        1.13200       -2.08200
H          0.78300        2.93700        1.05300
H          0.64900        3.06200       -0.66900
H          2.52500        2.36700       -2.17600
H          4.96600        2.05900       -2.38900
H          6.36700        1.76400       -0.36300
H          5.32000        1.80500        1.88600
H          2.87700        2.10400        2.11300
