10
290-37-9.pdb
C          0.76600        1.09400       -0.00000
C         -0.61600        1.18500        0.00400
N         -1.41500        0.09300        0.00500
C         -0.76600       -1.09400        0.00300
C          0.61600       -1.18500        0.00100
N          1.41500       -0.09300       -0.00100
H          1.39200        1.97900       -0.00300
H         -1.12100        2.14400        0.00600
H         -1.39200       -1.97900        0.00400
H          1.12100       -2.14400        0.00200
