28
2901-75-9.pdb
C          0.79700        1.23800       -0.89400
C          2.27200        1.48200       -0.74100
O          2.72700        2.53500       -0.31100
N          3.07300        0.47600       -1.24100
C          4.54600        0.54100       -1.09600
C          5.17800       -0.86000       -0.97800
C          4.73600       -1.70400        0.20100
C          4.75300       -3.10300        0.07600
C          4.37200       -3.92000        1.14200
C          3.98200       -3.35200        2.35200
C          3.99400       -1.96800        2.50100
C          4.38000       -1.14900        1.43700
C          5.19200        1.24400       -2.30300
O          4.30400        1.68600       -3.22400
O          6.40000        1.37400       -2.45500
H          0.26000        1.73400       -0.08100
H          0.56400        0.17100       -0.86300
H          0.46900        1.65100       -1.85300
H          2.66000       -0.44900       -1.32400
H          4.78100        1.15700       -0.22200
H          6.27000       -0.77100       -0.92400
H          4.95600       -1.41200       -1.90200
H          5.07300       -3.57000       -0.85300
H          4.38900       -5.00200        1.03100
H          3.68400       -3.98700        3.18200
H          3.71300       -1.52300        3.45300
H          4.40200       -0.07400        1.60400
H          3.39500        1.54000       -2.89300
