37
29022-11-5.pdb
O          6.17800        6.06200       -4.98500
C          5.51200        6.42700       -3.86000
O          4.37900        6.88100       -3.90400
C          6.29700        6.24200       -2.55500
N          7.63800        5.70300       -2.73600
C          7.86400        4.35500       -2.79500
O          8.40600        3.83300       -3.74100
O          7.46100        3.74800       -1.65400
C          7.73600        2.33700       -1.55200
C          9.21400        1.99700       -1.30000
C          9.75100        2.51700        0.03200
C          9.81900        3.83200        0.47300
C         10.36300        4.07900        1.73200
C         10.84300        3.02700        2.52600
C         10.79400        1.70500        2.07100
C         10.24500        1.45700        0.82200
C         10.06500        0.21300        0.10200
C         10.38800       -1.08800        0.45800
C         10.09200       -2.11900       -0.44000
C          9.48400       -1.84100       -1.67600
C          9.16200       -0.53000       -2.03800
C          9.45100        0.48900       -1.14100
H          7.05600        5.66800       -4.80400
H          5.71700        5.57700       -1.91200
H          6.41100        7.22700       -2.09200
H          8.35900        6.30000       -3.12900
H          7.37400        1.85500       -2.47000
H          7.10700        1.96300       -0.73500
H          9.86600        2.37300       -2.09400
H          9.46100        4.65000       -0.14100
H         10.41600        5.10300        2.10600
H         11.26000        3.24300        3.50600
H         11.17600        0.90100        2.69000
H         10.85900       -1.31400        1.40800
H         10.33500       -3.14600       -0.18000
H          9.26600       -2.65900       -2.35900
H          8.70100       -0.32400       -2.99900
