38
2909-77-5.pdb
C          3.16600       -0.15500        1.49700
C          2.46100       -0.01100        0.13300
C          0.94000       -0.01700        0.39900
C          3.05100        1.20700       -0.61500
C          2.34000        2.41600       -0.32700
C          2.64200        3.61400       -0.91300
C          3.71000        3.66700       -1.78100
C          4.53000        2.53600       -2.05500
C          5.74500        2.89700       -2.93400
C          5.36100        2.87900       -4.42400
C          6.40500        4.26900       -2.64300
C          4.19900        1.21200       -1.51400
N          4.87100        0.02500       -1.89000
C          5.08700       -1.13300       -1.00800
C          5.85900       -0.08200       -2.97100
H          2.71700       -0.95800        2.09000
H          3.08900        0.77100        2.08100
H          4.23300       -0.37000        1.40400
H          2.56600       -0.88600       -0.50500
H          0.63500        0.71200        1.15800
H          0.63500       -0.99800        0.78300
H          0.37300        0.17200       -0.51800
H          1.51000        2.41300        0.37200
H          2.05200        4.50100       -0.70400
H          3.90800        4.63400       -2.23500
H          6.54900        2.19300       -2.71200
H          4.82800        3.79100       -4.71600
H          4.69900        2.04700       -4.68500
H          6.26200        2.80700       -5.04200
H          5.80400        5.11700       -2.99100
H          7.36500        4.33800       -3.16900
H          6.59200        4.40700       -1.57400
H          4.26300       -1.48400       -0.41200
H          5.95000       -0.96700       -0.35500
H          5.30900       -2.02000       -1.62000
H          5.75300        0.61100       -3.78900
H          5.76100       -1.05700       -3.46700
H          6.87700       -0.03000       -2.56500
