23
2920-38-9.pdb
N         -3.09900       -0.02000       -0.10900
C         -1.93800       -0.01800       -0.06500
C         -0.50600       -0.01600       -0.01200
C          0.19900       -1.21900        0.03400
C          1.60000       -1.21200        0.09400
C          2.33300       -0.00900        0.09400
C          1.59400        1.18800        0.03800
C          0.19400        1.18900       -0.00700
C          3.81600        0.00300        0.14000
C          4.58300       -1.01500       -0.45900
C          5.98200       -0.98800       -0.43600
C          6.65000        0.06600        0.17700
C          5.92100        1.08300        0.78200
C          4.52300        1.04500        0.77100
H         -0.32900       -2.17000        0.02700
H          2.11100       -2.17100        0.14900
H          2.10200        2.15000        0.01400
H         -0.33700        2.13900       -0.04200
H          4.10100       -1.84300       -0.97300
H          6.54700       -1.78800       -0.90700
H          7.73700        0.09500        0.18400
H          6.43600        1.91000        1.26500
H          3.99100        1.84900        1.27500
