26
2928-43-0.pdb
O          2.89900        1.54400       -0.58100
C          2.59400        0.22400       -0.13600
C          2.96700       -0.00700        1.31000
C          3.09000        1.12100        2.15100
C          3.40300        0.99900        3.50400
C          3.56200       -0.26200        4.05700
C          3.42600       -1.39300        3.25100
C          3.14400       -1.30700        1.86400
C          3.11800       -2.57400        1.07200
C          2.16400       -2.83600        0.07400
C          2.22800       -3.99000       -0.71900
C          3.20700       -4.94900       -0.48500
C          4.12100       -4.75600        0.54200
C          4.08300       -3.57900        1.29800
H          2.55900        1.61000       -1.48900
H          3.12900       -0.46100       -0.79800
H          1.51200        0.09000       -0.24500
H          2.95800        2.12200        1.74200
H          3.52300        1.88900        4.11600
H          3.80100       -0.36700        5.11200
H          3.54300       -2.36400        3.72600
H          1.35400       -2.13900       -0.11800
H          1.51200       -4.13300       -1.52400
H          3.25600       -5.84400       -1.09900
H          4.87400       -5.51000        0.75300
H          4.83700       -3.45000        2.07300
