32
29342-05-0.pdb
C          1.04800       -0.02900        0.07900
C          2.54300       -0.10200        0.03800
C          3.20500       -1.27300       -0.01000
C          4.68600       -1.27800       -0.04600
O          5.31300       -2.33500       -0.09900
N          5.28500       -0.03700       -0.02300
O          6.69300       -0.03300       -0.05400
C          4.62600        1.17600       -0.01200
C          3.27900        1.15200        0.02700
C          5.39100        2.49100       -0.10000
C          6.20700        2.59700       -1.40200
C          6.96100        3.91800       -1.50200
C          7.82400        4.16000       -0.26900
C          6.99100        4.12300        1.00800
C          6.23500        2.80100        1.15100
H          0.59000       -1.02400        0.06200
H          0.66500        0.52600       -0.78500
H          0.71300        0.47500        0.99200
H          2.71900       -2.23900       -0.02300
H          6.89100       -0.98800       -0.15700
H          2.70300        2.07500        0.02800
H          4.64400        3.30000       -0.15400
H          5.54100        2.49000       -2.26800
H          6.94200        1.79000       -1.48000
H          6.24500        4.74000       -1.62200
H          7.59200        3.90800       -2.39800
H          8.32500        5.13000       -0.35700
H          8.61000        3.39600       -0.21500
H          6.27600        4.95600        1.00100
H          7.64200        4.27100        1.87700
H          5.58800        2.85300        2.03500
H          6.96200        2.00500        1.34500
