22
2935-44-6.pdb
C          0.89100       -0.05800        0.06900
C          2.41500       -0.01300        0.06900
O          2.91400       -1.33100       -0.14600
C          2.94100        0.93200       -1.01500
C          4.47600        1.00000       -1.04500
C          4.97800        1.94900       -2.14000
C          6.49800        2.03100       -2.17700
O          4.51800        1.50000       -3.41300
H          0.53000       -0.75100        0.83700
H          0.50900       -0.42300       -0.89200
H          0.46600        0.93100        0.26300
H          2.76700        0.31300        1.05400
H          2.59900       -1.62600       -1.02000
H          2.53700        1.93900       -0.85100
H          2.58200        0.58900       -1.99200
H          4.87300       -0.00700       -1.23000
H          4.85100        1.32800       -0.06900
H          4.56800        2.95200       -1.97900
H          6.94200        1.04000       -2.32300
H          6.89500        2.45900       -1.25200
H          6.82600        2.65000       -3.01800
H          4.87500        0.60700       -3.55800
