21
2941-72-2.pdb
C          1.26100       -0.45000       -0.73300
O          2.43200       -0.04600       -0.03400
C          3.14000       -1.02800        0.60600
C          4.28000       -0.57900        1.27200
C          5.11100       -1.46800        1.96300
C          4.79800       -2.84000        1.98200
N          5.53300       -3.83500        2.60500
C          4.96200       -5.00300        2.40800
C          5.50000       -6.29600        2.91000
S          3.50800       -4.97900        1.49900
C          3.65100       -3.27300        1.31600
C          2.80500       -2.38600        0.62400
H          0.82200        0.44000       -1.19600
H          0.51900       -0.87000       -0.04600
H          1.50300       -1.15600       -1.53500
H          4.53200        0.48000        1.25400
H          5.99800       -1.11200        2.47700
H          6.42800       -6.13400        3.46600
H          5.72100       -6.97200        2.07700
H          4.78500       -6.78400        3.58000
H          1.92700       -2.77600        0.12300
