17
2942-42-9.pdb
O          1.37800       -0.66500        0.19200
N          2.36100        0.08200        0.09200
O          2.74900        0.60600       -0.96400
C          3.13100        0.37900        1.30100
C          2.73300       -0.16800        2.53500
C          3.45000        0.10400        3.70200
C          4.58000        0.93200        3.67600
C          4.99000        1.48900        2.45200
C          6.02600        2.34500        2.01700
N          5.98300        2.58000        0.70400
N          4.91600        1.87400        0.29100
C          4.26900        1.20200        1.29800
H          1.85700       -0.81400        2.60000
H          3.12700       -0.33200        4.64600
H          5.12800        1.13800        4.59200
H          6.80900        2.80500        2.60600
H          4.67100        1.88600       -0.69700
