25
2944-47-0.pdb
C          1.13100       -0.30300        0.34300
O          2.48700        0.02600        0.05800
C          3.16600        0.72800        1.01800
C          2.82300        0.68400        2.37900
C          3.59100        1.35400        3.33300
C          4.71700        2.06400        2.94000
C          5.06300        2.11900        1.59100
C          4.28900        1.47200        0.60400
C          4.74600        1.62700       -0.84300
C          5.70300        0.50300       -1.24500
C          3.63100        1.79000       -1.88100
H          0.69600       -0.73500       -0.56400
H          0.55300        0.59000        0.59900
H          1.06000       -1.06100        1.12900
H          1.97200        0.11200        2.73400
H          3.31400        1.30900        4.38300
H          5.32900        2.57300        3.68100
H          5.95400        2.67700        1.30600
H          5.31500        2.56600       -0.89600
H          5.21600       -0.47700       -1.20400
H          6.57500        0.47300       -0.58200
H          6.07100        0.65700       -2.26600
H          3.11700        0.84900       -2.09500
H          4.05000        2.13900       -2.83200
H          2.88800        2.52600       -1.55400
