22
2944-49-2.pdb
C          1.27600       -0.58000       -0.68200
O          2.36500       -0.05400        0.06700
C          3.09200       -0.94000        0.82400
C          2.75900       -2.28700        0.99300
C          3.55600       -3.11600        1.77900
C          4.69100       -2.60600        2.40200
C          5.04600       -1.25600        2.25600
C          6.28100       -0.75900        2.95600
C          4.23800       -0.41000        1.46200
C          4.55800        1.05300        1.27500
H          0.84300        0.23900       -1.26500
H          0.49400       -0.96500       -0.02000
H          1.61300       -1.34700       -1.38700
H          1.88100       -2.72400        0.52900
H          3.29100       -4.16200        1.90500
H          5.30000       -3.27200        3.00900
H          6.77900       -1.56100        3.51200
H          6.02300        0.02400        3.67400
H          7.00200       -0.37300        2.22800
H          5.47000        1.36300        1.79200
H          3.74100        1.66800        1.66500
H          4.70200        1.27400        0.21200
