32
2948-46-1.pdb
C          3.65700        0.91000       -0.25600
C          2.46700       -0.02700       -0.01400
C          1.23400        0.76200        0.44200
O          2.14200       -0.62500       -1.27700
C          2.81100       -1.11200        1.00300
C          3.25200       -0.78200        2.29500
C          3.54900       -1.77400        3.23900
C          3.39700       -3.13300        2.93300
C          2.97000       -3.46200        1.63600
C          2.68500       -2.47200        0.69100
C          3.68100       -4.23300        3.95400
C          2.42800       -5.08100        4.21500
C          4.84200       -5.12100        3.49400
O          4.07300       -3.67400        5.21400
H          3.41800        1.65200       -1.02700
H          4.52400        0.34900       -0.62400
H          3.95700        1.45000        0.64700
H          0.93200        1.49100       -0.31900
H          1.40900        1.30000        1.38000
H          0.37600        0.09400        0.58800
H          1.93200        0.09200       -1.89600
H          3.37100        0.25900        2.58900
H          3.90800       -1.45900        4.21600
H          2.85500       -4.50200        1.33800
H          2.35700       -2.78000       -0.30100
H          2.08400       -5.60900        3.32000
H          1.60300       -4.45700        4.57700
H          2.62000       -5.82600        4.99700
H          4.61200       -5.66300        2.57000
H          5.09900       -5.85700        4.26400
H          5.74600       -4.52400        3.32000
H          3.30200       -3.19600        5.56300
