12
2949-92-0.pdb
C          3.55900        0.54700       -1.56100
S          2.91900        0.05200        0.04900
S          3.51000       -1.95200        0.11000
C          2.93500       -2.58700        1.66300
O          2.78900       -2.63500       -0.94600
O          4.96000       -1.95700        0.13900
H          3.38300        1.61500       -1.70900
H          3.05200       -0.00400       -2.35800
H          4.63400        0.36000       -1.62200
H          1.84300       -2.55500        1.67600
H          3.35000       -1.98000        2.47000
H          3.28000       -3.61800        1.75900
