11
29490-19-5.pdb
C          3.09400        0.35700       -0.04100
C          1.67200       -0.08000       -0.01200
N          1.29000       -1.31800        0.01600
N         -0.07500       -1.35800        0.03200
C         -0.74900       -0.16500        0.01100
S         -2.39800       -0.02300        0.00900
S          0.41500        1.13100       -0.01600
H          3.75600       -0.51300       -0.05400
H          3.31700        0.95800        0.84500
H          3.28100        0.95600       -0.93700
H         -0.54700       -2.25700        0.04700
