47
29548-30-9.pdb
C          7.92800        2.32700        1.36100
C          6.77800        1.59600        1.98300
O          6.42500        1.72800        3.14700
O          6.20600        0.77500        1.06300
C          5.13900       -0.04700        1.54900
C          5.69600       -1.26300        2.22900
C          6.46100       -2.22100        1.66900
C          6.85600       -2.23300        0.21500
C          6.98900       -3.37500        2.50400
C          8.52200       -3.37500        2.56800
C          9.06900       -4.49400        3.40700
C         10.37900       -4.76500        3.59100
C         11.47600       -3.93300        2.97400
C         10.88800       -5.93200        4.43400
C          9.78700       -6.80000        5.05700
C         10.25800       -7.95500        5.89300
C          9.41300       -8.80900        6.50800
C          7.91100       -8.70900        6.43100
C          9.91500       -9.95200        7.34300
H          8.38900        2.98000        2.10700
H          7.57100        2.94100        0.53100
H          8.67900        1.61100        1.01600
H          4.52400       -0.34400        0.69200
H          4.48100        0.51600        2.22100
H          5.45600       -1.32700        3.29000
H          6.40300       -1.42300       -0.36000
H          6.55200       -3.17500       -0.25000
H          7.94100       -2.12700        0.11100
H          6.62300       -4.31700        2.07800
H          6.58500       -3.32500        3.52100
H          8.86400       -2.41600        2.97700
H          8.92700       -3.48500        1.55500
H          8.31200       -5.12000        3.87200
H         11.10000       -3.10200        2.37100
H         12.09900       -4.55200        2.32000
H         12.10900       -3.50300        3.75700
H         11.52700       -5.53100        5.23200
H         11.52700       -6.56400        3.80200
H          9.16900       -7.20700        4.24700
H          9.16300       -6.16100        5.69400
H         11.33300       -8.09000        5.99800
H          7.56100       -7.87100        5.82100
H          7.48900       -8.57600        7.43300
H          7.49500       -9.62200        5.99500
H         11.00800       -9.98900        7.37900
H          9.56100      -10.90400        6.93600
H          9.55300       -9.85800        8.37300
