24
2956-58-3.pdb
C          3.89300        2.04500       -1.64500
C          3.86100        0.94300       -0.88400
C          4.70100       -0.22700       -1.24000
O          5.38300       -0.26500       -2.25700
N          4.64200       -1.24200       -0.31800
C          5.39600       -2.47100       -0.49900
C          6.91600       -2.26400       -0.45800
N          7.65500       -3.50400       -0.61100
C          7.97500       -4.28300        0.47100
O          7.62600       -4.03800        1.62000
C          8.79900       -5.46500        0.11300
C          9.24200       -6.29200        1.06900
H          3.28500        2.91100       -1.40400
H          4.52900        2.10900       -2.52400
H          3.22800        0.88900       -0.00900
H          4.04300       -1.16500        0.49200
H          5.10300       -2.90900       -1.46100
H          5.08000       -3.16300        0.28900
H          7.20000       -1.79200        0.49000
H          7.25000       -1.60500       -1.26400
H          7.95000       -3.76700       -1.54100
H          9.04100       -5.64100       -0.92700
H          9.01100       -6.12100        2.11700
H          9.84900       -7.15700        0.82400
