18
29654-55-5.pdb
O          2.44300        0.51600       -1.22500
C          2.47600       -0.03700        0.08500
C          2.88500        1.00600        1.09000
C          2.57500        2.36100        0.89400
C          2.92300        3.30600        1.85600
O          2.63100        4.62700        1.68200
C          3.57300        2.93200        3.02500
C          3.86700        1.58900        3.22800
O          4.49100        1.16500        4.36600
C          3.52700        0.62800        2.27800
H          2.13800       -0.19200       -1.81800
H          3.18600       -0.87100        0.08200
H          1.47700       -0.41100        0.33300
H          2.06800        2.66300       -0.01900
H          2.18000        4.72600        0.82600
H          3.83100        3.69000        3.75600
H          4.65700        1.93900        4.92800
H          3.76700       -0.41500        2.47200
