16
29676-71-9.pdb
N          2.11700        0.11100       -0.00700
C          0.80100       -0.10800       -0.00200
S         -0.34200        1.16900        0.01200
C         -1.61500        0.02100        0.01300
C         -1.10000       -1.26300       -0.00200
C         -1.89700       -2.53100       -0.01300
C         -1.13700       -3.83900       -0.02900
O          0.21100       -3.79200       -0.03200
O         -1.72300       -4.91800       -0.04000
N          0.28900       -1.31400       -0.00700
H          2.50900        1.04300        0.01900
H          2.76500       -0.66500        0.01000
H         -2.65100        0.33300        0.02200
H         -2.53900       -2.52400       -0.90200
H         -2.53500       -2.54300        0.87900
H          0.54400       -2.86100       -0.02400
