25
29678-81-7.pdb
O          2.77600        1.17000       -0.91500
C          2.38500        0.08900       -0.05200
C          0.86500       -0.05700       -0.07300
C          0.36100       -0.48200       -1.45500
C         -1.14200       -0.60900       -1.49900
C         -1.93900        0.50500       -1.80000
C         -3.32900        0.38900       -1.85100
C         -3.93600       -0.83900       -1.59700
C         -3.15500       -1.95000       -1.28600
C         -1.76400       -1.83600       -1.23300
C          2.85900        0.42300        1.36100
O          3.04300        1.76000        1.52000
O          3.05200       -0.39200        2.24700
H          3.72200        1.03000       -1.12000
H          2.88900       -0.82100       -0.39200
H          0.55000       -0.78900        0.68100
H          0.40100        0.90000        0.20200
H          0.81400       -1.44000       -1.74000
H          0.67800        0.23800       -2.21900
H         -1.47900        1.46900       -2.00300
H         -3.93800        1.25600       -2.09200
H         -5.01900       -0.93100       -1.64100
H         -3.62900       -2.90800       -1.08600
H         -1.16900       -2.71300       -0.99000
H          2.81900        2.20700        0.67000
