32
29682-12-0.pdb
C          2.86400        0.57900        1.30000
C          2.43600       -0.04000       -0.00400
O          1.45400        0.39200       -0.60800
C          3.21300       -1.17900       -0.58400
C          2.80800       -1.66900       -1.83800
C          3.52200       -2.69200       -2.47200
C          4.65300       -3.23100       -1.86700
O          5.34700       -4.16200       -2.59300
C          6.72800       -4.27400       -2.23600
C          7.50600       -4.89500       -3.36100
C          8.49100       -4.15500       -4.03000
C          9.23800       -4.73700       -5.05300
C          9.00500       -6.06100       -5.41500
C          8.02600       -6.80400       -4.75800
C          7.27700       -6.22400       -3.73400
C          5.02100       -2.79900       -0.59100
C          4.32200       -1.76800        0.03600
O          4.77000       -1.35300        1.25800
H          2.21900        1.43400        1.52300
H          3.88900        0.95500        1.22800
H          2.75600       -0.14200        2.11500
H          1.94000       -1.24500       -2.33900
H          3.20800       -3.04300       -3.45500
H          6.83000       -4.90400       -1.34300
H          7.15600       -3.28600       -2.02000
H          8.68400       -3.11900       -3.76000
H          9.99900       -4.15500       -5.56600
H          9.58600       -6.51500       -6.21300
H          7.84300       -7.83500       -5.04400
H          6.51200       -6.81000       -3.22900
H          5.86000       -3.25600       -0.07900
H          5.60200       -1.80500        1.47800
