33
29684-56-8.pdb
C          2.93100       -1.03900       -1.11700
C          2.55500       -0.07100       -0.00400
N          3.03500        1.36100       -0.17100
C          2.63500        2.02700       -1.48700
C          1.12800        2.04400       -1.72800
C          2.53200        2.23400        1.00100
C          3.00200        1.85600        2.40100
S          4.79000        1.40700       -0.10900
O          5.06200        2.82400       -0.03500
O          5.10100        0.48800        0.95800
N          5.38100        0.80500       -1.55200
C          6.75800        0.50300       -1.61600
O          7.55700        0.83400       -0.75500
O          7.06700       -0.22000       -2.72300
C          8.44600       -0.58500       -2.82000
H          2.51300       -2.02500       -0.88600
H          4.00800       -1.18600       -1.20400
H          2.52900       -0.73600       -2.08700
H          2.91000       -0.46600        0.95100
H          1.46200       -0.02800        0.06600
H          3.11500        1.49700       -2.31500
H          3.00500        3.06000       -1.47700
H          0.72600        1.03700       -1.86500
H          0.91400        2.60300       -2.64600
H          0.57500        2.53400       -0.92400
H          1.44000        2.15300        0.99100
H          2.78000        3.28100        0.78900
H          2.84900        0.80000        2.63500
H          2.42700        2.42800        3.13900
H          4.05200        2.11200        2.56800
H          8.57300       -1.19600       -3.71900
H          8.75300       -1.17900       -1.95300
H          9.06800        0.31000       -2.91800
