20
29745-04-8.pdb
O          1.43600       -0.29000        0.64300
C          2.60000       -0.15600        0.30300
O          3.54200       -1.12500        0.39600
C          4.74100       -0.66700       -0.02500
O          5.76700       -1.32900       -0.04300
C          4.64000        0.74900       -0.48400
C          5.31700        1.70000        0.49800
C          5.31000        3.13300       -0.02900
C          3.81200        3.46200       -0.03000
C          3.21100        2.23300        0.66400
O          4.30300        1.82800        1.52600
C          3.17200        1.07300       -0.31700
H          4.98900        0.83800       -1.51600
H          6.27300        1.36600        0.90800
H          5.78300        3.24800       -1.00700
H          5.81600        3.79500        0.68400
H          3.41600        3.60300       -1.04100
H          3.62600        4.37600        0.54300
H          2.29400        2.41700        1.22900
H          2.66000        1.28700       -1.25900
