20
2976-30-9.pdb
C          4.43800        0.23100       -0.75300
S          2.88100       -0.04900        0.04700
O          2.49400        1.16600        0.73400
O          1.99000       -0.68600       -0.90400
C          3.28400       -1.25800        1.29000
C          3.66100       -0.83400        2.56900
C          3.92800       -1.78300        3.55800
C          3.80400       -3.14900        3.26000
C          3.43300       -3.57000        1.97400
C          3.16900       -2.61900        0.98600
N          4.05100       -4.14900        4.30700
O          4.36300       -3.73800        5.43300
O          3.93400       -5.34400        4.00200
H          4.28400        0.95700       -1.55300
H          4.79800       -0.71100       -1.16900
H          5.14500        0.62800       -0.02100
H          3.73700        0.22600        2.80600
H          4.21500       -1.44600        4.55400
H          3.33200       -4.62700        1.73200
H          2.86300       -2.94600       -0.00600
