23
2979-19-3.pdb
C         -2.50100        0.65600        0.66200
C         -1.17500        0.22700        0.01000
C         -1.19800        0.68100       -1.46400
C         -1.03900       -1.31200        0.11300
C          0.31600       -1.83400       -0.37000
C          1.48100       -1.14500        0.32800
C          1.31900        0.35600        0.26200
O          2.23500        1.09400       -0.09100
C         -0.00600        0.90100        0.75000
H         -3.35800        0.20000        0.15200
H         -2.62900        1.74400        0.62100
H         -2.54300        0.35600        1.71500
H         -2.02700        0.21500       -2.00700
H         -0.27400        0.42700       -1.99200
H         -1.32200        1.76800       -1.53600
H         -1.83700       -1.80200       -0.45800
H         -1.17400       -1.61900        1.15900
H          0.40000       -1.69200       -1.45400
H          0.37400       -2.91400       -0.19400
H          2.42500       -1.42900       -0.14800
H          1.53100       -1.43400        1.38300
H         -0.02100        1.98800        0.60600
H         -0.05900        0.71100        1.82900
