16
2980-33-8.pdb
O          1.35500        0.62300        0.38100
N          2.30300       -0.07900        0.00600
O          2.70200       -1.09600        0.58700
C          2.99200        0.33900       -1.21600
C          4.02600       -0.40600       -1.64600
N          4.69600       -0.05500       -2.80000
C          4.37400        1.03800       -3.59200
O          4.98300        1.24300       -4.63200
C          3.24500        1.86000       -3.07800
C          2.58400        1.52000       -1.95300
N          2.81600        3.03700       -3.79300
O          1.61800        3.34400       -3.71400
O          3.67000        3.69500       -4.39700
H          4.38700       -1.30100       -1.14400
H          5.46600       -0.62800       -3.13800
H          1.75400        2.10800       -1.57100
