25
2984-50-1.pdb
C          0.87800       -0.02700       -0.07100
C          2.39800        0.00200       -0.07400
C          2.92800        1.34100        0.43900
C          4.45700        1.37500        0.44200
C          4.97700        2.71700        0.96000
C          6.50600        2.76000        0.96100
C          7.02400        4.06900        1.47000
C          6.70000        5.38100        0.79300
O          7.95300        4.71400        0.58500
H          0.51500       -0.99000       -0.44300
H          0.47000        0.76100       -0.71300
H          0.48500        0.11700        0.94000
H          2.76000       -0.17600       -1.09300
H          2.77500       -0.81400        0.55300
H          2.55600        1.51700        1.45600
H          2.54400        2.15300       -0.19000
H          4.83000        1.20400       -0.57600
H          4.84400        0.56400        1.07000
H          4.60100        2.89800        1.97400
H          4.58500        3.52300        0.32900
H          6.88100        2.56200       -0.05000
H          6.89600        1.96100        1.60300
H          7.24300        4.07000        2.52700
H          6.71200        6.28100        1.39400
H          5.99200        5.39200       -0.02300
