23
29968-78-3.pdb
N          2.94900        2.69500        1.22800
C          2.48800        1.49400        1.97500
C          3.08900        0.21900        1.37800
C          4.60000        0.17100        1.42700
C          5.27800        0.22100        2.65600
C          6.67300        0.14300        2.70400
C          7.40100        0.00000        1.51800
C          6.73900       -0.05700        0.28600
C          5.34300        0.02600        0.24400
N          8.86600       -0.09700        1.56900
O          9.40500       -0.03300        2.68200
O          9.46900       -0.22100        0.49500
H          2.55600        3.55700        1.62900
H          2.67300        2.66200        0.23800
H          3.97500        2.78300        1.26000
H          1.39600        1.48200        1.90700
H          2.77800        1.64600        3.01900
H          2.74400        0.11200        0.34200
H          2.70200       -0.65300        1.92100
H          4.73500        0.28600        3.59800
H          7.17500        0.17200        3.67100
H          7.29400       -0.18800       -0.64400
H          4.85000       -0.05600       -0.72400
