22
   
C          1.07700        0.62600       -0.49300
O          2.15800        0.04100        0.22100
C          2.87000        0.82800        1.08500
C          2.60000        2.19200        1.27300
C          3.35300        2.96200        2.16600
C          4.42000        2.40400        2.86100
N          5.08800        3.14200        3.84500
C          4.65000        1.03600        2.72300
C          3.90900        0.24300        1.82800
O          4.33600       -1.06100        1.83000
C          3.72800       -1.98800        0.94500
H          0.62700       -0.15400       -1.11400
H          1.42800        1.41900       -1.16000
H          0.30400        0.99200        0.19100
H          1.79400        2.69300        0.74700
H          3.09300        4.00800        2.31100
H          5.10800        4.14100        3.66700
H          6.00700        2.77400        4.07500
H          5.42700        0.55900        3.31700
H          4.23300       -2.95000        1.07900
H          3.86800       -1.69400       -0.10000
H          2.67300       -2.14200        1.19400
