20
   
C         -0.71000        1.23000        0.03000
C          0.68000        1.21000        0.01000
C          1.39000        0.00000        0.00000
C          0.69000       -1.22000        0.04000
C         -0.72000       -1.22000        0.04000
C         -1.40000        0.01000        0.03000
N         -2.85000        0.05000        0.02000
O         -3.39000        0.64000        0.96000
O         -3.42000       -0.43000       -0.97000
O         -1.44000       -2.38000        0.07000
C          1.41000       -2.52000        0.04000
O          0.86000       -3.53000       -0.37000
O          2.65000       -2.51000        0.56000
N          1.43000        2.48000        0.00000
O          0.78000        3.53000       -0.04000
O          2.67000        2.41000        0.04000
H         -1.27000        2.17000        0.03000
H          2.48000        0.01000       -0.07000
H         -0.87000       -3.15000       -0.14000
H          2.94000       -1.71000        1.04000
