22
   
C          1.13800       -0.01900       -0.30200
O          2.32400        0.08800        0.47400
C          2.93200       -1.08000        0.85000
C          4.05800       -0.91100        1.66300
C          4.80500       -2.00600        2.09900
N          5.85400       -1.82900        3.01100
C          4.34300       -3.28700        1.79500
C          3.22000       -3.47800        0.98200
O          2.91200       -4.79000        0.74100
C          1.76800       -5.05100       -0.06200
C          2.52100       -2.36900        0.50000
H          0.77000        0.99400       -0.49300
H          0.35700       -0.56000        0.24200
H          1.34200       -0.48700       -1.27100
H          4.35000        0.09500        1.95200
H          6.31500       -0.92800        2.93200
H          6.51500       -2.60000        3.02500
H          4.85900       -4.15900        2.18900
H          1.66000       -6.13600       -0.14800
H          1.89600       -4.64800       -1.07200
H          0.85900       -4.66200        0.40800
H          1.65400       -2.50800       -0.13100
