10
   
C         -1.06000       -0.01000       -0.02000
N         -0.35000        1.12000       -0.03000
N          0.90000        0.64000        0.02000
C          0.91000       -0.73000        0.06000
N         -0.32000       -1.16000        0.03000
N          2.04000       -1.45000        0.12000
H         -2.14000       -0.01000       -0.05000
H          1.69000        1.28000        0.04000
H          2.95000       -1.07000       -0.14000
H          1.95000       -2.45000       -0.04000
