21
   
C          1.02500       -0.24200       -0.16700
C          2.47700        0.12300       -0.35400
O          2.82300        1.29400       -0.45500
N          3.28600       -0.99700       -0.41300
C          4.68800       -1.03900       -0.57000
C          5.49500        0.09400       -0.65900
C          6.88000       -0.03800       -0.77500
C          7.46400       -1.30300       -0.82500
C          6.67000       -2.45000       -0.80700
N          7.26400       -3.71700       -0.73600
C          5.29000       -2.30600       -0.62500
H          0.45000        0.65700        0.07500
H          0.91500       -0.95300        0.65600
H          0.63500       -0.67800       -1.09100
H          2.82400       -1.89500       -0.34000
H          5.08200        1.09700       -0.61700
H          7.50500        0.85100       -0.81100
H          8.54600       -1.38400       -0.88200
H          8.18500       -3.75800       -1.16400
H          6.66400       -4.47100       -1.05200
H          4.68200       -3.20000       -0.52500
