15
300-85-6.pdb
C          0.94800        0.08300       -0.04200
C          2.47000        0.09400       -0.02000
O          2.96800       -1.24300       -0.18600
C          3.05200        0.95300       -1.13500
C          4.55600        1.08400       -1.05100
O          5.20400       -0.02600       -0.63700
O          5.15500        2.08800       -1.41600
H          0.56100       -0.58300        0.73700
H          0.57100       -0.29900       -0.99700
H          0.54000        1.08400        0.11900
H          2.82100        0.44900        0.95600
H          2.33800       -1.73400       -0.75000
H          2.63100        1.96300       -1.07300
H          2.81700        0.53200       -2.11900
H          4.58600       -0.76100       -0.40000
