53
301-00-8.pdb
C          4.02600        0.18400        3.66200
C          3.65500       -0.60400        2.41700
C          4.78200       -1.48700        1.95700
C          5.38000       -1.41800        0.75500
C          5.02700       -0.40900       -0.29900
C          5.94400       -0.46500       -1.48500
C          7.09100        0.22600       -1.59700
C          7.62900        1.11400       -0.51200
C          8.87400        1.84100       -0.92600
C          8.89000        3.06200       -1.48500
C          7.64100        3.82100       -1.82800
C          7.93100        5.16400       -2.48500
C          6.62300        5.87500       -2.82400
C          6.90100        7.22300       -3.47300
C          5.60500        7.95100       -3.82500
C          5.92700        9.29300       -4.47100
C          4.66900       10.07000       -4.84100
C          5.03300       11.38800       -5.47600
O          6.17600       11.78800       -5.66900
O          3.90500       12.07300       -5.80700
C          4.17500       13.33600       -6.41600
H          3.19700        0.83900        3.94900
H          4.90700        0.81100        3.48900
H          4.23700       -0.48300        4.50400
H          3.35000        0.10200        1.63900
H          2.78200       -1.23200        2.62500
H          5.11700       -2.25000        2.65800
H          6.18400       -2.11900        0.53600
H          5.04900        0.59600        0.13900
H          4.00100       -0.57600       -0.64700
H          5.62400       -1.09600       -2.31200
H          7.66200        0.14100       -2.52000
H          7.86000        0.51700        0.37800
H          6.86200        1.83700       -0.21100
H          9.81600        1.33800       -0.72300
H          9.85000        3.51500       -1.72200
H          7.05700        3.99700       -0.91600
H          7.02900        3.21800       -2.51000
H          8.52100        5.01600       -3.39800
H          8.52900        5.78800       -1.80900
H          6.03000        6.01800       -1.91200
H          6.02700        5.25200       -3.50300
H          7.49800        7.07700       -4.38100
H          7.49700        7.84200       -2.79100
H          5.00800        8.10600       -2.91700
H          5.00800        7.33900       -4.50800
H          6.53700        9.12900       -5.36900
H          6.53800        9.89300       -3.78300
H          4.07400       10.27000       -3.94200
H          4.06700        9.49400       -5.55100
H          3.21800       13.81500       -6.64500
H          4.72700       13.20000       -7.35100
H          4.73100       13.98200       -5.73000
