17
3012-37-1.pdb
N          1.13600        1.68500       -0.64600
C          2.25500        1.80200       -0.93000
S          3.89300        1.95600       -1.30100
C          4.53600        1.48600        0.32800
C          6.04000        1.56000        0.39800
C          6.67800        2.75000        0.77900
C          8.06800        2.80500        0.89800
C          8.83700        1.67500        0.62200
C          8.21600        0.49600        0.21900
C          6.82900        0.43700        0.10200
H          4.21000        0.46600        0.56800
H          4.10700        2.14000        1.09500
H          6.09400        3.64200        1.00000
H          8.55100        3.72900        1.20400
H          9.91800        1.71700        0.72400
H          8.81900       -0.38500        0.00100
H          6.36300       -0.49600       -0.21200
