29
3012-65-5.pdb
N         -0.61100       -1.11300       -0.70400
N          1.74600        2.15400        0.05100
O          3.64900       -1.72400       -1.01100
C          2.92700       -0.82300       -0.30700
O          1.99700       -0.22400       -0.85800
C          3.29100       -0.70400        1.21900
O          2.61100        0.36400        1.91900
C          2.83800       -2.01200        1.88500
C          1.34500       -2.28700        1.70600
O          0.60100       -1.33600        1.31300
O          0.98300       -3.47700        1.87400
C          4.79700       -0.46500        1.40100
C          5.24200        0.84300        0.72800
O          4.33100        1.57100        0.23400
O          6.49800        1.01800        0.73400
H          0.30000       -0.96400       -1.16100
H         -0.97900       -2.04500       -0.88800
H         -1.26900       -0.35500       -0.82200
H         -0.30900       -1.14700        0.30900
H          2.78300        2.33600        0.18900
H          1.40300        1.84400        0.96500
H          1.79500        1.30000       -0.52400
H          1.24600        2.90300       -0.40500
H          4.38000       -2.14600       -0.51500
H          2.81400        0.23400        2.86500
H          3.04600       -1.99200        2.96100
H          3.38800       -2.86100        1.46000
H          5.39300       -1.28900        0.99200
H          5.05200       -0.39900        2.46700
