13
302-72-7.pdb
C          0.93100        0.00100       -0.07600
C          2.45100        0.05800       -0.09400
N          3.03000       -1.28200       -0.40000
C          2.97500        1.06000       -1.13700
O          4.13700        0.62000       -1.68600
O          2.45600        2.12700       -1.42300
H          0.57400       -0.69900        0.68600
H          0.52700       -0.31100       -1.04700
H          0.50900        0.98600        0.15100
H          2.83100        0.38200        0.88100
H          2.55700       -1.64800       -1.23400
H          2.74300       -1.92200        0.34500
H          4.30500       -0.27000       -1.28900
