20
3022-15-9.pdb
O          3.38300       -3.06700        1.52900
C          2.45900       -2.20100        1.56000
O          1.30800       -2.16100        2.03400
C          2.96800       -0.90200        0.93100
C          3.29700       -0.15900        2.23500
N          4.11100        1.09400        1.93100
C          5.37400        0.82000        1.15000
C          5.08700        0.03600       -0.15000
N          4.24100       -1.14900        0.10400
H          2.24900       -0.38400        0.29400
H          3.91500       -0.74300        2.92900
H          2.40100        0.18700        2.76100
H          4.35600        1.53000        2.83500
H          3.51000        1.78300        1.45600
H          6.03700        0.25600        1.81400
H          5.82400        1.79300        0.93100
H          6.01200       -0.31400       -0.61600
H          4.53900        0.66100       -0.86300
H          4.68800       -1.94400        0.62800
H          3.95400       -1.64400       -0.75400
