18
3025-95-4.pdb
C          1.06100       -0.48300       -0.07600
C          2.55800       -0.56700       -0.19300
O          3.13700       -0.72900       -1.25900
N          3.21200       -0.50100        1.02100
C          4.66600       -0.42200        1.08100
C          5.21200       -0.93100        2.40300
C          4.92900       -2.37700        2.74200
O          4.11200       -3.05300        1.91300
O          5.39200       -2.90400        3.74700
H          0.61000       -0.60400       -1.06400
H          0.77200        0.49000        0.33000
H          0.69700       -1.28200        0.57600
H          2.68700       -0.09700        1.79200
H          4.93300        0.63200        0.94300
H          5.09700       -0.98300        0.24400
H          4.81600       -0.32200        3.22200
H          6.30300       -0.82000        2.38500
H          3.74500       -2.53000        1.17200
