21
3025-96-5.pdb
C          1.01800       -0.26700       -1.57800
C          2.51000       -0.36000       -1.75000
O          3.04500       -1.23200       -2.42800
N          3.21000        0.62400       -1.08500
C          4.65400        0.68900       -1.13200
C          5.15000        1.49500       -2.33300
C          6.67500        1.50800       -2.38300
C          7.22600        2.35400       -3.50300
O          6.90800        1.91500       -4.73900
O          7.93700        3.33100       -3.32000
H          0.53700       -1.09200       -2.11300
H          0.65600        0.67900       -1.99200
H          0.75700       -0.33500       -0.52000
H          2.70000        1.34100       -0.58600
H          5.05500       -0.33100       -1.17100
H          4.98900        1.14600       -0.19400
H          4.76700        2.52200       -2.27500
H          4.74200        1.07000       -3.25900
H          7.08300        0.49500       -2.48000
H          7.06400        1.91900       -1.44500
H          6.36800        1.10300       -4.75500
