36
3029-32-1.pdb
O          1.13800        0.09900        0.08500
C          2.35800        0.04100        0.02200
C          3.04800       -1.25600        0.08300
C          2.28500       -2.40100        0.32700
C          2.89700       -3.65200        0.41200
C          2.12100       -4.80300        0.60100
C          2.72400       -6.05500        0.69100
C          4.11100       -6.16000        0.63100
C          4.89700       -5.01800        0.44000
C          4.30400       -3.75100        0.29900
C          5.05800       -2.58600        0.03900
C          4.42700       -1.33900       -0.08400
C          5.21000       -0.11500       -0.38800
O          6.39400       -0.19000       -0.68800
C          4.53100        1.20300       -0.30200
C          5.26700        2.39100       -0.39400
C          4.63800        3.64000       -0.21400
C          5.35500        4.84700       -0.24600
C          4.71000        6.06800       -0.02000
C          3.34200        6.10400        0.22800
C          2.60900        4.91900        0.24400
C          3.24300        3.68800        0.02800
C          2.51300        2.49800        0.06900
C          3.15800        1.26800       -0.08500
H          1.20700       -2.31200        0.45100
H          1.03700       -4.73400        0.66200
H          2.11000       -6.94300        0.81000
H          4.58100       -7.13600        0.72300
H          5.97800       -5.13000        0.39700
H          6.14000       -2.65200       -0.07700
H          6.34000        2.34300       -0.57700
H          6.42600        4.84700       -0.43200
H          5.28000        6.99300       -0.03100
H          2.84100        7.05000        0.41300
H          1.53900        4.96200        0.44200
H          1.43900        2.52300        0.24900
