28
3029-19-4.pdb
O          1.33000       -0.73100        0.00700
C          2.28300        0.03700        0.01300
C          3.04000        0.34800        1.24900
C          2.62000       -0.28500        2.42600
C          3.27900       -0.04100        3.62500
C          4.35600        0.85000        3.67200
C          5.00400        1.11400        4.88500
C          6.06300        2.02000        4.94700
C          6.50500        2.68000        3.79500
C          7.56000        3.60300        3.85100
C          7.99100        4.26000        2.70000
C          7.37300        4.00000        1.47800
C          6.31400        3.08500        1.39400
C          5.68100        2.82900        0.17800
C          4.61300        1.93400        0.10800
C          4.13400        1.25200        1.25100
C          4.78600        1.50100        2.48700
C          5.87000        2.41800        2.55800
H          2.59900        0.51900       -0.92000
H          1.77200       -0.96800        2.40900
H          2.93600       -0.55000        4.52400
H          4.68400        0.62200        5.80100
H          6.53600        2.21000        5.90800
H          8.05200        3.82100        4.79600
H          8.80600        4.97600        2.75600
H          7.72200        4.52500        0.59200
H          6.00400        3.33200       -0.73100
H          4.16200        1.79700       -0.87000
