14
3031-68-3.pdb
O          4.07300       -0.56100        0.00800
C          3.36300        0.66700       -0.03000
C          1.93000        0.39600       -0.01000
C          0.75200        0.16800       -0.00100
C         -0.74800       -0.13300        0.00500
C         -1.92400       -0.37100        0.01400
C         -3.35400       -0.66400        0.03400
O         -4.09800        0.54600        0.01300
H          5.01700       -0.34000       -0.04100
H          3.64200        1.20300       -0.94200
H          3.66000        1.26800        0.83500
H         -3.62900       -1.22100        0.93500
H         -3.64700       -1.25900       -0.83600
H         -3.75300        1.09700        0.73600
