11
3034-50-2.pdb
O          2.62100        0.31900       -1.08700
C          2.23400        0.14200        0.06400
C          2.94600        0.60400        1.21800
N          4.13400        1.29200        1.17800
C          4.50200        1.56000        2.46500
N          3.62700        1.08700        3.32300
C          2.65600        0.49100        2.56000
H          1.29100       -0.39700        0.26200
H          4.63600        1.54900        0.33800
H          5.40800        2.09700        2.71200
H          1.80200        0.01400        3.02200
