33
3034-04-6.pdb
C          0.94000        0.18700       -0.00100
O          2.32700       -0.13300       -0.01700
C          2.87900       -0.30800       -1.25600
C          3.98200       -1.16400       -1.29900
C          4.64300       -1.41300       -2.50200
C          4.22600       -0.76600       -3.66300
O          4.97400       -0.99300       -4.78900
C          4.91000        0.06500       -5.76600
C          3.45300        0.37700       -6.11500
C          2.69000        0.74000       -4.87300
O          1.69900        1.46300       -4.89500
C          3.13000        0.09000       -3.62200
C          2.44800        0.32300       -2.42200
C          5.79000        1.27100       -5.42300
C          6.63000        1.28500       -4.29600
C          7.44200        2.38300       -4.00900
C          7.45400        3.48200       -4.86200
C          6.65300        3.47900       -6.00000
C          5.83100        2.38300       -6.28000
H          0.60900        0.17800        1.04200
H          0.36100       -0.56700       -0.54400
H          0.75300        1.18900       -0.39600
H          4.33000       -1.64100       -0.38400
H          5.50100       -2.07800       -2.52400
H          5.36600       -0.36700       -6.66700
H          2.96800       -0.50900       -6.53700
H          3.36600        1.19300       -6.83600
H          1.61000        1.01300       -2.42200
H          6.67700        0.43700       -3.62000
H          8.07100        2.37500       -3.12300
H          8.09100        4.33300       -4.64400
H          6.67200        4.32900       -6.67500
H          5.23400        2.41200       -7.18800
