17
3034-34-2.pdb
N          1.06300       -0.19400        0.19500
C          2.40500        0.03100        0.07000
O          2.96500       -0.06800       -1.01300
C          3.14600        0.43400        1.29300
C          2.73400        0.03900        2.57100
C          3.49000        0.39900        3.69200
C          4.66100        1.15200        3.54000
C          5.06800        1.55400        2.26400
C          4.31600        1.19000        1.14300
C          5.44900        1.49200        4.68700
N          6.08800        1.75800        5.62000
H          0.55900       -0.37700       -0.66400
H          0.52900        0.11400        0.99500
H          1.85100       -0.58000        2.70900
H          3.17100        0.07200        4.68000
H          5.97800        2.13700        2.12900
H          4.64700        1.49100        0.15000
