30
30361-29-6.pdb
C          1.04000        0.05200       -0.08200
C          2.55900        0.04900       -0.07000
C          3.09200       -0.58500        1.21200
C          4.61900       -0.59500        1.23200
C          5.13800       -1.23200        2.52100
C          6.66500       -1.24800        2.55300
C          7.18300       -1.87500        3.81900
C          7.96300       -1.20900        4.68200
C          8.47200       -1.79000        5.90300
C          9.24600       -1.09700        6.74700
C          9.75300       -1.71200        7.98700
O         10.46300       -1.07900        8.76400
H          0.66800        0.50800       -1.00400
H          0.64500        0.62200        0.76600
H          0.64700       -0.96800       -0.02200
H          2.92500        1.07800       -0.15800
H          2.92800       -0.50400       -0.94100
H          2.71600       -1.61200        1.29900
H          2.71600       -0.03100        2.08100
H          4.99600        0.43200        1.14800
H          4.99600       -1.15100        0.36500
H          4.75400       -2.25700        2.60200
H          4.75400       -0.67500        3.38400
H          7.03900       -0.22100        2.46500
H          7.04500       -1.80800        1.69100
H          6.90300       -2.90700        4.01200
H          8.23500       -0.17500        4.46700
H          8.20000       -2.82200        6.11400
H          9.54100       -0.06800        6.57600
H          9.46500       -2.75700        8.17500
