22
30379-55-6.pdb
O          3.32000        0.68700        0.97700
C          2.47600        0.12800        0.07800
O          1.25700        0.20500        0.16400
C          3.20200       -0.59900       -1.04800
O          4.61800       -0.49900       -0.86100
C          5.32400       -1.17800       -1.90500
C          6.80100       -1.04300       -1.64600
C          7.60300       -2.17700       -1.45600
C          8.97600       -2.04600       -1.23500
C          9.56100       -0.78100       -1.20500
C          8.77400        0.35400       -1.38900
C          7.40200        0.22500       -1.60900
H          4.24100        0.48600        0.69800
H          2.92400       -0.12700       -1.99600
H          2.90100       -1.65200       -1.02600
H          5.08500       -0.73600       -2.88000
H          5.03000       -2.23400       -1.92400
H          7.16700       -3.17300       -1.47900
H          9.59000       -2.93100       -1.08900
H         10.63000       -0.68100       -1.03800
H          9.23000        1.34000       -1.36400
H          6.79900        1.11900       -1.75200
