24
3040-44-6.pdb
O          0.93400       -2.17200       -0.01400
C          2.35500       -2.29600       -0.02900
C          2.98000       -1.14700       -0.83800
N          4.45600       -1.16900       -0.86500
C          4.97200       -2.37400       -1.53300
C          6.49800       -2.41500       -1.50600
C          7.09700       -1.16900       -2.14000
C          6.49800        0.08600       -1.51500
C          4.96800        0.04400       -1.52900
H          0.59700       -2.93200        0.48900
H          2.58500       -3.26900       -0.46800
H          2.71400       -2.27700        1.00600
H          2.63800       -0.20700       -0.38500
H          2.56600       -1.15300       -1.85600
H          4.61300       -2.42900       -2.56800
H          4.62800       -3.27900       -1.01900
H          6.85200       -3.30800       -2.03400
H          6.84400       -2.50100       -0.46800
H          6.89500       -1.17300       -3.21900
H          8.18500       -1.17000       -2.01600
H          6.85200        0.97100       -2.05600
H          6.85200        0.18100       -0.48000
H          4.61000        0.09900       -2.56700
H          4.60000        0.93900       -1.01100
