19
30414-53-0.pdb
C          0.98500       -1.85900        0.39400
C          2.13700       -2.00400        1.37400
C          2.98000       -0.74100        1.43300
O          2.49800        0.37200        1.21000
C          4.44900       -0.89000        1.73600
C          4.73100       -1.50700        3.07000
O          3.88300       -1.88200        3.86500
O          6.07700       -1.61400        3.26400
C          6.42400       -2.20700        4.51700
H          0.39100       -2.77700        0.35900
H          1.35700       -1.65100       -0.61500
H          0.32300       -1.03600        0.68200
H          2.77000       -2.84100        1.06000
H          1.75200       -2.21700        2.37600
H          4.90300        0.10700        1.71300
H          4.89600       -1.50200        0.94600
H          7.51400       -2.25400        4.59000
H          6.02900       -3.22600        4.57800
H          6.04700       -1.59700        5.34400
