20
3047-32-3.pdb
C          2.99900       -1.16300        0.80500
C          2.19500       -0.03300        0.17600
C          3.05100        1.21700       -0.05800
C          4.23100        1.02800       -1.00900
O          3.77500        0.53400       -2.26600
C          3.42500        1.98000        1.23100
O          2.95700        3.22900        0.66600
C          2.25500        2.50200       -0.37800
H          2.34800       -2.02000        1.01300
H          3.45800       -0.84800        1.74600
H          3.79600       -1.50900        0.14000
H          1.35200        0.20300        0.83800
H          1.75700       -0.37800       -0.76700
H          4.97500        0.33300       -0.60700
H          4.74900        1.97500       -1.19800
H          3.60600       -0.41900       -2.16700
H          4.48900        2.01400        1.48100
H          2.85100        1.72700        2.12900
H          2.42500        2.95000       -1.36300
H          1.18000        2.47600       -0.17600
