19
305-01-1.pdb
O          0.99000        0.05300        0.14600
C          2.35700        0.03000        0.12500
C          3.07900        1.21900        0.09000
C          4.46900        1.15000        0.02400
O          5.16900        2.37000       -0.06300
C          6.54400        2.39500       -0.24200
O          7.16800        3.44200       -0.38500
C          7.24200        1.09800       -0.24600
C          6.59800       -0.06300       -0.10900
C          5.14900       -0.06900        0.01100
C          4.41600       -1.25600        0.07400
C          3.02100       -1.20100        0.11800
O          2.28600       -2.35300        0.13800
H          0.68400        0.97100        0.09400
H          2.58700        2.18500        0.09500
H          8.31800        1.14400       -0.37300
H          7.13500       -1.00600       -0.11300
H          4.92800       -2.21400        0.06700
H          2.87900       -3.11700        0.07000
