28
3051-09-0.pdb
N         -0.12900        0.57000        0.65800
O          1.47500       -0.45300       -0.93500
C          2.68800       -0.37600       -0.73400
N          3.31500        0.83100       -0.72400
C          4.62100        1.05900       -0.39100
O          5.05500        2.19800       -0.26600
C          5.43300       -0.15800       -0.16700
N          6.80300       -0.08500       -0.16900
C          7.42200        0.14600        0.95400
C          6.76000        0.36900        2.31300
O          5.54900        0.26600        2.46600
N          7.62000        0.66900        3.32900
C          8.97900        0.68700        3.27700
O          9.64500        0.91100        4.28200
N          9.56500        0.44200        2.07800
C          8.93800        0.20900        0.88600
O          9.54500        0.07500       -0.16400
C          4.76000       -1.47600       -0.10300
O          5.33500       -2.50800        0.21900
N          3.42600       -1.46600       -0.40500
H          0.73500        0.87500        1.11700
H         -0.94800        0.74700        1.23800
H         -0.02600       -0.43300        0.43400
H         -0.20200        1.02900       -0.25800
H          2.79100        1.66400       -0.95200
H          7.21800        0.82500        4.24300
H         10.57600        0.47800        2.04900
H          2.97600       -2.37200       -0.39000
