27
3054-01-1.pdb
N          0.66700       -0.46600       -0.32000
C          2.16100       -0.42800       -0.23500
C          2.74400       -1.38400        0.81500
S          2.07700       -0.97200        2.47500
C          2.92500       -2.24500        3.46200
C          2.54900       -2.15600        4.92200
C          1.43200       -2.84900        5.41400
C          1.07900       -2.76700        6.76300
C          1.83400       -1.98400        7.63500
C          2.93900       -1.28600        7.16100
C          3.29600       -1.36800        5.81300
C          2.72600       -0.73100       -1.62900
O          1.86000       -0.32400       -2.59900
O          3.81100       -1.23000       -1.86600
H          0.32200       -0.09700        0.57700
H          0.38100       -1.45200       -0.27700
H          2.45500        0.60800       -0.01100
H          3.83600       -1.30100        0.83900
H          2.48900       -2.42300        0.57300
H          4.00900       -2.13500        3.35000
H          2.65600       -3.23400        3.07500
H          0.82600       -3.45800        4.74500
H          0.21300       -3.31100        7.13100
H          1.55400       -1.91800        8.68400
H          3.52600       -0.67200        7.84200
H          4.16200       -0.81100        5.46000
H          1.04200       -0.01900       -2.13000
