27
3054-92-0.pdb
C          2.52300       -1.52100       -0.23000
C          2.34600       -0.00500       -0.05900
C          0.84900        0.32600       -0.17500
C          2.98400        0.59800        1.24300
C          2.38000       -0.04400        2.50800
C          4.55300        0.59100        1.28000
C          5.15500        1.38100        0.10300
C          5.12500        1.19600        2.57300
O          5.04300       -0.75100        1.24400
H          1.97700       -1.87200       -1.11400
H          2.14500       -2.08200        0.62900
H          3.56700       -1.79500       -0.39200
H          2.81900        0.47100       -0.92400
H          0.26300       -0.07000        0.65600
H          0.43000       -0.10300       -1.09400
H          0.69800        1.40900       -0.22300
H          2.68500        1.65800        1.26300
H          2.68400       -1.08800        2.62300
H          1.28700       -0.00400        2.50700
H          2.67900        0.49400        3.41400
H          4.79900        2.41700        0.09500
H          4.92500        0.92200       -0.86200
H          6.25000        1.39700        0.16600
H          4.84900        2.24800        2.68800
H          6.22100        1.12400        2.57700
H          4.80700        0.64400        3.46200
H          5.35300       -0.94500        0.34400
