26
3056-33-5.pdb
C          0.98200        1.15900        1.44700
C          2.44700        1.33600        1.72300
O          2.86200        1.74700        2.80400
N          3.26200        0.98200        0.66600
C          4.63200        1.05000        0.65400
N          5.20000        0.66400       -0.45100
C          6.59900        0.68400       -0.56900
O          7.17100        0.36100       -1.60400
C          7.32900        1.10800        0.63600
N          8.67600        1.18900        0.89300
C          8.75800        1.60900        2.14400
N          7.52200        1.81800        2.73500
C          7.19300        2.24300        4.02900
C          8.31100        2.48300        4.99600
O          6.01200        2.38500        4.32700
C          6.63100        1.49500        1.74300
N          5.29300        1.49500        1.77100
H          0.40600        1.58200        2.27500
H          0.74800        0.09500        1.35900
H          0.70600        1.68300        0.52800
H          2.85300        0.63000       -0.18900
H          9.69600        1.77300        2.65700
H          9.31000        2.33300        4.59300
H          8.18400        1.80200        5.84300
H          8.24200        3.51400        5.35400
H          4.74100        1.76900        2.59600
