19
3059-97-0.pdb
C          2.88400       -1.55000        0.29000
C          2.47700       -0.09900        0.05800
C          3.07600        0.89800        1.05200
C          2.63500        2.33200        0.74200
N          2.56700        0.58600        2.45400
C          4.63900        0.94900        1.10000
O          5.26900        0.74400        0.04300
O          5.01900        1.11500        2.31000
H          2.42700       -2.19100       -0.47100
H          2.55200       -1.91400        1.26700
H          3.96800       -1.67900        0.22400
H          1.38200       -0.03600        0.08400
H          2.77500        0.17700       -0.96200
H          1.54500        2.43300        0.79400
H          2.95000        2.63800       -0.26200
H          3.06600        3.05100        1.44900
H          1.58700        0.78800        2.64000
H          3.20900        1.15700        3.04600
H          2.84500       -0.36400        2.71400
