23
306-08-1.pdb
C          1.10400       -0.26200       -0.34700
O          2.42600       -0.18700        0.17100
C          3.04600        1.02900        0.04900
C          2.37100        2.25600        0.09000
C          3.07700        3.46900       -0.00500
C          2.35200        4.79400        0.10300
C          1.88200        5.46700       -1.17000
O          2.10200        4.80800       -2.32800
O          1.32100        6.55300       -1.15600
C          4.47100        3.43500       -0.14700
C          5.15300        2.21700       -0.15800
C          4.44200        1.02300       -0.05500
O          5.11200       -0.16800       -0.06200
H          0.81800       -1.31800       -0.38700
H          1.05200        0.13700       -1.36600
H          0.39300        0.24700        0.31100
H          1.29600        2.28300        0.24800
H          3.01300        5.50400        0.61300
H          1.47100        4.66000        0.74300
H          2.55000        3.94600       -2.23800
H          5.04400        4.35900       -0.21100
H          6.23700        2.21600       -0.23100
H          6.06700       -0.00200       -0.05200
