25
3066-71-5.pdb
C          2.85800       -2.35700       -0.40200
C          3.34200       -1.11500       -0.26500
C          4.06000       -0.47500       -1.38800
O          4.25200       -1.00100       -2.47300
O          4.45300        0.76600       -1.00800
C          5.16700        1.49900       -2.02300
C          6.63600        1.06100       -2.05400
C          7.42800        1.86400       -3.08000
C          7.31000        3.36500       -2.83200
C          5.85300        3.81500       -2.74500
C          5.07100        2.99700       -1.71900
H          2.32600       -2.84600        0.40500
H          2.98300       -2.91300       -1.32900
H          3.22500       -0.55300        0.65200
H          4.69800        1.32500       -3.00100
H          6.71200       -0.00800       -2.28500
H          7.07900        1.18100       -1.05700
H          7.05700        1.63000       -4.08600
H          8.48100        1.56500       -3.05100
H          7.81800        3.91100       -3.63500
H          7.82500        3.61900       -1.89700
H          5.38200        3.70800       -3.73000
H          5.81000        4.87900       -2.48500
H          4.02000        3.31000       -1.71100
H          5.45100        3.20100       -0.70900
