41
30673-60-0.pdb
C          1.01800       -0.08400        0.06800
C          2.53800       -0.07300        0.05700
C          3.07300        0.41700       -1.28600
C          4.60000        0.42700       -1.30400
C          5.12000        0.91800       -2.65400
C          6.64500        0.92800       -2.68200
C          7.17400        1.41600       -4.03100
C          8.69900        1.40600       -4.03800
C          9.28100        1.87000       -5.37100
C         10.79200        1.90600       -5.30100
O         11.46200        1.52100       -4.35900
O         11.29100        2.49400       -6.42700
C         12.62000        3.01900       -6.29600
C         13.64000        2.20600       -7.08200
C         15.02300        2.82700       -6.94400
H          0.64700       -0.43700        1.03500
H          0.62700       -0.74600       -0.71100
H          0.62000        0.92100       -0.10500
H          2.90800       -1.08500        0.26000
H          2.90100        0.57500        0.86300
H          2.69500        1.42700       -1.48600
H          2.70100       -0.23100       -2.08900
H          4.97800       -0.58300       -1.10600
H          4.97400        1.07700       -0.50300
H          4.74200        1.93000       -2.84800
H          4.74100        0.27200       -3.45400
H          7.02200       -0.08300       -2.48200
H          7.02300        1.57600       -1.88000
H          6.80800        2.43100       -4.22600
H          6.79300        0.77200       -4.83300
H          9.05700        0.39500       -3.81300
H          9.06900        2.05300       -3.23200
H          8.92900        2.88700       -5.58300
H          8.96900        1.20500       -6.18200
H         12.92200        3.10500       -5.24600
H         12.58000        4.03900       -6.69300
H         13.35300        2.16400       -8.13900
H         13.65800        1.16900       -6.72700
H         15.02700        3.85800       -7.31600
H         15.76500        2.25900       -7.51200
H         15.34000        2.84700       -5.89600
