25
30725-00-9.pdb
C          0.87600       -0.05800        0.32900
C          2.38600        0.00200        0.10700
C          3.08300        0.52400        1.35600
O          2.66400        0.87100       -0.99300
C          2.90600        0.03300       -2.12600
C          1.68200       -0.05100       -3.02600
C          1.97200        0.36400       -4.46700
O          0.77900        0.27400       -5.24400
O          1.26900       -1.42600       -3.06200
C          2.10200       -2.19800       -2.31400
O          2.00700       -3.41300       -2.24900
C          3.11400       -1.35200       -1.58300
O          2.88900       -1.29900       -0.18400
H          0.46000        0.94500        0.47500
H          0.62600       -0.68300        1.19200
H          0.36100       -0.49500       -0.53300
H          2.77300        1.54800        1.59000
H          4.16900        0.53400        1.21500
H          2.87800       -0.11900        2.21900
H          3.78300        0.42100       -2.65300
H          0.84000        0.53600       -2.64100
H          2.71100       -0.29600       -4.93000
H          2.33200        1.39500       -4.51700
H          0.41300       -0.62100       -5.10200
H          4.12000       -1.72800       -1.79500
