34
3075-84-1.pdb
C          2.92100        0.09000       -0.13000
C          1.42200        0.11200       -0.15400
C          0.72200        1.30000       -0.00500
C         -0.66600        1.27500        0.06100
C         -1.38700        0.05700        0.04300
C         -2.88700        0.19400        0.17500
C         -0.69700       -1.18300       -0.11200
C          0.70400       -1.09200       -0.26600
C         -1.35800       -2.54200       -0.08600
C         -2.61000       -2.72500       -0.71600
C         -3.37000       -3.90000       -0.60700
C         -4.76700       -3.97000       -1.14900
C         -2.81600       -4.99900        0.03600
C         -1.54700       -4.89800        0.59500
C         -0.82500       -3.68700        0.57700
C          0.51300       -3.72800        1.27900
H          3.34100        1.10100       -0.14800
H          3.31300       -0.45500       -0.99400
H          3.26500       -0.39800        0.78800
H          1.24600        2.25000        0.06900
H         -1.19500        2.22100        0.15700
H         -3.16500        1.19200        0.52200
H         -3.28300       -0.51600        0.90600
H         -3.37500        0.06300       -0.79700
H          1.28300       -1.98800       -0.46600
H         -3.03100       -1.91600       -1.30600
H         -5.11100       -2.99100       -1.49600
H         -5.45500       -4.29500       -0.36100
H         -4.81500       -4.67300       -1.98500
H         -3.36600       -5.93100        0.11300
H         -1.13000       -5.78100        1.08100
H          0.60700       -4.61900        1.91100
H          0.64600       -2.86500        1.93700
H          1.32600       -3.79200        0.55000
