28
3086-62-2.pdb
C          1.12600        0.33000        0.38300
O          2.46800        0.07300       -0.02000
C          3.06900        1.00900       -0.82000
C          2.65800        2.34700       -0.84800
C          3.34500        3.29800       -1.61200
C          4.45800        2.91600       -2.36100
C          4.90500        1.59100       -2.31900
O          5.99700        1.16000       -3.03600
C          7.04900        2.10900       -3.18000
C          4.19600        0.62100       -1.57400
O          4.73500       -0.64600       -1.60200
C          3.81700       -1.73300       -1.56200
C          2.84600        4.69600       -1.59500
N          3.73400        5.69200       -1.88500
O          1.68800        4.95800       -1.28900
H          0.76600       -0.55100        0.92300
H          0.47700        0.48100       -0.48700
H          1.06900        1.17700        1.07400
H          1.81400        2.69100       -0.25800
H          4.95000        3.64000       -2.99900
H          7.94400        1.57500       -3.51000
H          7.28300        2.60000       -2.22800
H          6.80300        2.84900       -3.94900
H          4.32300       -2.61000       -1.98000
H          2.92300       -1.54800       -2.16700
H          3.55800       -1.98200       -0.52900
H          4.73300        5.55300       -1.90100
H          3.39700        6.63900       -1.75400
