24
3096-57-9.pdb
N          0.98500        0.04400        0.24600
C          2.37200        0.04100        0.05000
C          3.07600       -1.18300        0.07200
C          4.47800       -1.23300        0.03700
C          5.17300       -0.04000        0.01800
C          6.59300        0.23800        0.01600
C          7.68800       -0.60800        0.01900
C          8.96800       -0.03700        0.02600
C          9.14200        1.36100        0.03100
C          8.03900        2.21700        0.03100
C          6.78900        1.63000        0.02400
C          5.45500        2.27000        0.03400
O          5.22000        3.46000        0.04000
C          4.46500        1.17100        0.03300
C          3.08400        1.24300        0.07100
H          0.51500       -0.79600       -0.07600
H          0.52200        0.89200       -0.06600
H          2.52300       -2.11900        0.12700
H          4.99000       -2.19000        0.04800
H          7.57100       -1.68700        0.02000
H          9.84300       -0.68300        0.03000
H         10.14700        1.77600        0.03800
H          8.15200        3.29600        0.03900
H          2.58800        2.20500        0.12200
