24
3096-81-9.pdb
N         -3.08200        0.18400       -0.18200
C         -1.92600        0.11900       -0.10200
C         -0.49800        0.04300        0.00000
C          0.13000       -1.20100        0.12600
C          1.52200       -1.27800        0.23200
C          2.29600       -0.11700        0.15400
O          3.66900       -0.08500        0.23700
C          4.42500       -1.11400       -0.27600
C          4.07400       -1.88300       -1.38900
C          4.90600       -2.92000       -1.81400
C          6.11800       -3.15300       -1.16700
C          6.50400       -2.34500       -0.09900
C          5.65800       -1.32800        0.34600
C          1.66700        1.12700        0.05800
C          0.27300        1.20800       -0.02100
H         -0.45700       -2.11700        0.14500
H          1.98600       -2.25200        0.36500
H          3.15300       -1.69500       -1.93200
H          4.60900       -3.54200       -2.65500
H          6.76800       -3.95700       -1.50400
H          7.46200       -2.50700        0.38800
H          5.96100       -0.70000        1.18000
H          2.26500        2.03600        0.04400
H         -0.20000        2.18600       -0.09500
