22
30991-42-5.pdb
C         -1.75200       -1.54900        0.01400
C         -0.48700       -0.73600        0.01000
C          0.75800       -1.37600        0.01800
C          1.93400       -0.63100        0.00100
C          1.88500        0.76600       -0.03000
C          0.65100        1.43500       -0.03600
C          0.55500        2.92700       -0.09900
O         -0.55200        3.46300       -0.18900
N          1.73000        3.67300       -0.05700
N          1.64800        5.08300       -0.08600
C         -0.53200        0.66700       -0.01300
O         -1.78300        1.23600       -0.01600
H         -1.53900       -2.62400        0.02800
H         -2.34000       -1.34000       -0.88600
H         -2.35000       -1.31800        0.90200
H          0.81700       -2.46200        0.03200
H          2.89600       -1.14000        0.00300
H          2.83100        1.29300       -0.06200
H          2.62700        3.25800        0.17300
H          0.65900        5.32600        0.07200
H          1.82000        5.38700       -1.04900
H         -1.67800        2.21400       -0.06300
