30
30992-29-1.pdb
C          2.99100        1.31500       -0.65300
C          2.56900       -0.00100        0.02000
C          2.95900       -0.05200        1.50700
C          1.03500       -0.08900       -0.05800
O          3.09300       -1.14500       -0.70700
C          4.44600       -1.28000       -0.77100
O          5.24000       -0.52500       -0.22600
N          4.81300       -2.34800       -1.52100
C          6.22000       -2.73400       -1.78900
C          6.95300       -1.61400       -2.53900
C          6.93700       -3.09800       -0.48300
C          6.32200       -4.00800       -2.71100
O          5.19500       -4.47900       -3.06400
O          7.48400       -4.41600       -2.99600
H          2.54600        2.18100       -0.15200
H          2.68300        1.32300       -1.70500
H          4.07500        1.46300       -0.65200
H          2.51100        0.77600        2.06500
H          4.03800        0.00100        1.66800
H          2.63000       -0.99600        1.95800
H          0.56400        0.75300        0.46400
H          0.66700       -1.01800        0.38900
H          0.69100       -0.08100       -1.09800
H          4.12000       -2.94800       -1.96700
H          6.94500       -0.67300       -1.98100
H          6.47700       -1.41900       -3.50800
H          8.00300       -1.86200       -2.72700
H          6.92200       -2.27300        0.23600
H          7.98800       -3.35700       -0.64700
H          6.45300       -3.95500        0.00000
