34
309956-78-3.pdb
C          3.78400       -0.80700       -1.44900
C          2.85000       -0.46700       -0.27200
C          2.71300        1.04600       -0.07100
C          1.46800       -1.04900       -0.62200
O          3.28600       -1.08800        0.96700
C          4.55500       -0.85700        1.39000
O          5.35600       -0.09800        0.85400
N          4.88300       -1.63800        2.45700
C          6.27500       -1.71900        2.88600
C          6.55400       -3.04900        3.59000
C          6.04300       -3.04800        5.02800
C          6.52700       -1.81900        5.79300
N          6.13400       -0.58400        5.11500
C          6.70900       -0.52500        3.76200
H          3.42100       -0.36500       -2.38200
H          3.86100       -1.89200       -1.58100
H          4.80400       -0.44200       -1.30700
H          2.34200        1.53900       -0.97400
H          3.66800        1.51100        0.19100
H          2.02800        1.26400        0.75600
H          1.07500       -0.60600       -1.54600
H          0.73900       -0.87500        0.17700
H          1.52200       -2.13400       -0.76800
H          4.13500       -1.86300        3.09800
H          6.88100       -1.69800        1.97000
H          7.63900       -3.21700        3.60200
H          6.11000       -3.88400        3.03500
H          6.38400       -3.95700        5.53700
H          4.94600       -3.07600        5.03100
H          7.61700       -1.85400        5.91900
H          6.09000       -1.82600        6.79700
H          6.47400        0.21800        5.64600
H          7.80400       -0.50900        3.83400
H          6.41100        0.42100        3.29700
