20
3105-95-1.pdb
O          2.75300        0.76700        1.21600
C          2.53600       -0.01700        0.12600
O          1.92800       -1.07400        0.17000
C          3.18300        0.57700       -1.13100
C          4.55300       -0.07400       -1.32900
C          5.29800        0.54700       -2.50600
C          5.35400        2.06400       -2.36700
C          3.96700        2.65300       -2.11900
N          3.32000        2.05300       -0.94300
H          3.26600        1.55000        0.90200
H          2.51400        0.38200       -1.97900
H          4.43900       -1.15300       -1.49400
H          5.15900        0.03500       -0.42000
H          4.78900        0.28200       -3.44000
H          6.31300        0.13900       -2.56500
H          5.78200        2.50100       -3.27700
H          6.02100        2.33300       -1.53900
H          3.33400        2.51400       -3.00400
H          4.05700        3.73200       -1.95800
H          2.37300        2.44700       -0.88900
