18
3112-85-4.pdb
C          1.61600       -0.67600       -0.94200
S          2.88800        0.00300        0.09000
O          2.28400        0.38900        1.35000
O          4.02100       -0.90100        0.05600
C          3.36800        1.49400       -0.75200
C          2.73100        2.69900       -0.44100
C          3.14400        3.87400       -1.06900
C          4.19200        3.84400       -1.99100
C          4.83400        2.64000       -2.28600
C          4.42600        1.46000       -1.66500
H          1.28600       -1.61500       -0.49100
H          2.02200       -0.86800       -1.93600
H          0.78000        0.02400       -0.98900
H          1.93200        2.73600        0.29500
H          2.66000        4.81900       -0.83000
H          4.52100        4.76500       -2.46900
H          5.66300        2.62600       -2.99000
H          4.94700        0.53000       -1.88300
