20
3113-72-2.pdb
C          2.41300       -0.06000        0.00100
C          0.91100       -0.02600        0.02000
C          0.22300        1.19000       -0.00400
C         -1.17100        1.20600       -0.02700
C         -1.87800       -0.00800       -0.01900
C         -1.22500       -1.24100        0.02900
C          0.18400       -1.22900        0.03500
C         -1.85800       -2.58500       -0.03700
O         -3.00300       -2.77400        0.63900
O         -1.30300       -3.50300       -0.62400
N         -3.31800        0.08300       -0.06400
O         -3.82500        0.68400       -1.01700
O         -3.93000       -0.42200        0.88900
H          2.83700        0.94900        0.01700
H          2.76600       -0.55700       -0.90900
H          2.79100       -0.59700        0.87700
H          0.76800        2.13300       -0.02000
H         -1.69400        2.16000       -0.06100
H          0.72800       -2.17600        0.03300
H         -3.41300       -2.02300        1.12300
