33
31166-44-6.pdb
O          1.38600        0.49100        0.58900
C          2.47600        0.16200        0.14100
O          3.22100       -0.87300        0.59600
C          2.77300       -1.47100        1.82400
C          2.24000       -2.86000        1.59900
C          3.09000       -3.97400        1.67200
C          2.57700       -5.26600        1.54200
C          1.21400       -5.46000        1.32700
C          0.36300       -4.36000        1.22900
C          0.87300       -3.06700        1.36000
N          3.09000        0.84700       -0.89800
C          2.48600        2.08400       -1.39200
C          2.45000        2.10100       -2.92300
N          3.83200        1.83300       -3.46900
C          4.42500        0.54000       -2.95900
C          4.41900        0.51600       -1.42200
H          2.03800       -0.85600        2.35800
H          3.64700       -1.51800        2.48500
H          4.15400       -3.84500        1.86000
H          3.23800       -6.12600        1.62900
H          0.81300       -6.46700        1.24400
H         -0.70200       -4.51200        1.07100
H          0.19100       -2.22000        1.30300
H          3.09800        2.91400       -1.01800
H          1.47300        2.22100       -0.99900
H          2.13600        3.07400       -3.31200
H          1.79800        1.31600       -3.32000
H          4.45400        2.61600       -3.22700
H          3.78900        1.80400       -4.49600
H          5.44000        0.47200       -3.36100
H          3.81000       -0.26700       -3.37300
H          5.11600        1.27000       -1.02900
H          4.76000       -0.46300       -1.07300
