18
3119-02-6.pdb
N          1.10300       -0.09200       -0.35100
S          2.77100       -0.07100       -0.16900
O          3.03500        0.37500        1.17800
O          3.22300       -1.34800       -0.67600
C          3.25300        1.20700       -1.29200
C          2.79100        2.51200       -1.09500
C          3.14600        3.51000       -2.00800
C          3.96200        3.20200       -3.10600
C          4.42500        1.89400       -3.28800
C          4.07400        0.89500       -2.37900
C          4.31300        4.22400       -4.04700
N          4.59600        5.05000       -4.81300
H          0.66300       -0.06700        0.57200
H          0.82100       -0.89500       -0.91400
H          2.15700        2.75300       -0.24500
H          2.77900        4.52300       -1.86200
H          5.06000        1.64400       -4.13700
H          4.43700       -0.12100       -2.52900
