19
3128-06-1.pdb
C          0.98300        0.02300       -0.08100
C          2.48500        0.12900       -0.06000
O          3.04400        1.20300        0.15900
C          3.26200       -1.15000       -0.32000
C          4.76900       -0.89800       -0.26800
C          5.58000       -2.16200       -0.52500
C          7.08800       -2.02000       -0.49600
O          7.58900       -0.79600       -0.24700
O          7.82600       -2.97800       -0.69000
H          0.54400        1.00400        0.11800
H          0.65400       -0.67500        0.69200
H          0.65400       -0.31800       -1.06600
H          2.97600       -1.53000       -1.30600
H          2.97600       -1.88500        0.44000
H          5.03100       -0.48600        0.71500
H          5.03100       -0.13500       -1.01300
H          5.31800       -2.56000       -1.51200
H          5.31800       -2.91300        0.22900
H          6.95400       -0.07300       -0.10100
