20
3133-78-6.pdb
C          1.06500       -0.07100       -0.07300
C          2.55900        0.08400       -0.07300
C          3.28900        1.27300       -0.07400
S          4.97600        0.97900       -0.07600
C          4.78500       -0.72000       -0.07400
C          5.81800       -1.68000       -0.07300
C          5.48900       -3.03500       -0.07100
C          4.16000       -3.43000       -0.06900
C          3.13900       -2.47100       -0.06900
C          3.43900       -1.08100       -0.07200
C          2.75500        2.67800       -0.07400
O          1.49200        2.82800       -0.07400
O          3.59500        3.63100       -0.07500
H          0.50100        0.85800       -0.07400
H          0.75000       -0.63100        0.81500
H          0.75000       -0.63300       -0.95900
H          6.85600       -1.36100       -0.07500
H          6.28100       -3.77800       -0.07000
H          3.90700       -4.48600       -0.06600
H          2.10300       -2.79700       -0.06700
