24
3133-81-1.pdb
C          0.97700       -0.16100       -0.99600
O          2.40300       -0.12700       -0.98600
C          2.92400        1.09000       -0.65100
O          2.23100        2.06700       -0.39300
C          4.38100        1.04000       -0.64700
S          5.19500        2.46800       -0.17200
C          6.74200        1.77500       -0.38400
C          7.97800        2.41800       -0.17000
C          9.15800        1.71300       -0.39900
C          9.11200        0.39600       -0.82800
C          7.88100       -0.23900       -1.03400
C          6.65800        0.45000       -0.81400
C          5.27500        0.02000       -0.96600
C          4.87300       -1.35100       -1.42500
H          0.66300       -1.19000       -1.19300
H          0.59100        0.48100       -1.79300
H          0.57800        0.14100       -0.02300
H          8.01000        3.45100        0.16300
H         10.11500        2.20300       -0.24100
H         10.03600       -0.14700       -1.00800
H          7.87700       -1.27200       -1.37000
H          5.73100       -1.98600       -1.65800
H          4.26600       -1.28200       -2.33500
H          4.29200       -1.86100       -0.64900
