32
3138-90-7.pdb
C          0.85900       -0.13000        0.21600
C          2.38400       -0.17400        0.06800
C          2.91000        0.91900       -0.90500
N          2.56300        0.65700       -2.31800
C          3.01100       -0.70300       -2.69000
C          2.52000       -1.80100       -1.72200
N          2.84400       -1.53000       -0.31000
C          3.16900        1.64000       -3.23400
C          2.75400        3.07600       -2.98900
C          3.71500        4.04300       -2.65500
C          3.34400        5.37100       -2.44000
C          2.00800        5.74900       -2.55900
C          1.04400        4.80100       -2.89600
C          1.41400        3.47000       -3.11000
H          0.54300        0.84100        0.61200
H          0.51500       -0.89900        0.91600
H          0.33900       -0.28100       -0.73500
H          2.80500        0.03700        1.05900
H          4.00100        0.98600       -0.79500
H          2.49400        1.88100       -0.58500
H          4.10900       -0.74200       -2.72500
H          2.64500       -0.94500       -3.69500
H          2.98500       -2.75400       -2.00200
H          1.44000       -1.94700       -1.83500
H          3.85900       -1.54700       -0.21700
H          2.87700        1.40000       -4.26500
H          4.26400        1.56600       -3.20100
H          4.76200        3.76600       -2.56200
H          4.09700        6.11000       -2.17900
H          1.71900        6.78300       -2.39000
H          0.00300        5.09600       -2.99300
H          0.65300        2.73600       -3.36800
