35
31431-39-7.pdb
C          4.39300        1.29500        2.08500
O          4.03400        0.52500        0.93500
C          4.96600       -0.41700        0.60800
O          5.99800       -0.57800        1.24000
N          4.53000       -1.08200       -0.50600
C          5.25700       -2.09900       -1.06200
N          4.84800       -2.74600       -2.20400
C          5.79200       -3.69100       -2.52600
C          5.91100       -4.60200       -3.58000
C          7.05100       -5.42900       -3.57600
C          7.98000       -5.37300       -2.52600
C          7.84000       -4.43900       -1.49400
C          6.73100       -3.58600       -1.50900
N          6.38800       -2.60100       -0.63000
C          7.22200       -6.38100       -4.70600
O          6.21900       -6.84400       -5.24600
C          8.56700       -6.77600       -5.20800
C          9.67200       -5.91700       -5.13800
C         10.91700       -6.33700       -5.61200
C         11.05800       -7.60000       -6.18400
C          9.95400       -8.44600       -6.28900
C          8.71000       -8.03500       -5.80400
H          3.52400        1.88700        2.38400
H          5.21100        1.97900        1.83400
H          4.67200        0.65200        2.92600
H          3.65600       -0.77700       -0.89800
H          4.00600       -2.55400       -2.72500
H          5.16900       -4.66900       -4.37100
H          8.83000       -6.05100       -2.48900
H          8.56600       -4.36600       -0.69200
H          9.58400       -4.91500       -4.72700
H         11.77700       -5.67400       -5.54100
H         12.02600       -7.92200       -6.55900
H         10.06000       -9.42400       -6.75000
H          7.85300       -8.69900       -5.89300
