17
3143-02-0.pdb
C          0.85900        0.05200        0.05900
C          2.36900        0.04700       -0.13400
C          2.79200        0.08500       -1.59800
O          2.25400       -1.03800       -2.29400
C          3.14700       -0.97100        0.72200
O          4.01600        0.07300        1.23000
C          3.11200        1.08800        0.72600
H          0.39400       -0.81500       -0.42100
H          0.41400        0.95600       -0.36900
H          0.58900        0.02100        1.12100
H          3.88100        0.07700       -1.72000
H          2.41100        0.98900       -2.08600
H          2.71400       -1.83400       -1.97800
H          3.71300       -1.73300        0.17700
H          2.59100       -1.44800        1.53600
H          3.64700        1.87300        0.18400
H          2.54200        1.54100        1.54400
