10
3144-09-0.pdb
C          0.88100       -0.00900       -0.01200
S          2.65600       -0.12900        0.02600
N          2.87000       -1.72600        0.48600
O          3.17500       -0.03600       -1.31800
O          3.17000        0.66600        1.11600
H          0.49600       -0.72400       -0.74100
H          0.61700        1.00700       -0.31000
H          0.49400       -0.21800        0.98700
H          3.34600       -2.24400       -0.25500
H          3.34600       -1.77100        1.38800
