21
3147-39-5.pdb
C          1.30600        1.95900        1.79200
O          2.72600        1.90700        1.68300
C          3.20600        1.09100        0.71800
O          2.55200        0.51800       -0.14300
C          4.68900        1.05700        0.73500
C          5.37400        0.86200       -0.47600
O          4.74200        0.63400       -1.67300
C          6.76900        0.89000       -0.52200
C          7.48400        1.09200        0.65300
O          8.84500        1.13500        0.66200
C          6.83000        1.24000        1.87000
C          5.43500        1.21200        1.91300
O          4.81800        1.29500        3.13000
H          1.06000        2.65200        2.60200
H          0.91100        0.97200        2.05100
H          0.85800        2.33100        0.86600
H          3.78900        0.46700       -1.49900
H          7.27200        0.75100       -1.47400
H          9.16800        1.03500       -0.25000
H          7.42200        1.37100        2.77200
H          5.47900        1.46500        3.82300
