18
3147-50-0.pdb
N          2.55000        1.34100       -0.03000
C          2.48200       -0.01900       -0.01600
O          1.81400       -0.63000       -0.84700
C          3.20500       -0.75100        1.06200
C          2.82900       -2.07900        1.33500
O          1.85200       -2.74600        0.64000
C          3.44200       -2.80300        2.35600
C          4.46000       -2.21900        3.10700
C          4.86600       -0.91300        2.83700
C          4.24000       -0.18200        1.82200
O          4.66800        1.10100        1.58200
H          2.11000        1.84500       -0.78600
H          3.17800        1.83000        0.60000
H          1.57800       -2.17700       -0.11600
H          3.12400       -3.82200        2.56200
H          4.93800       -2.78800        3.90200
H          5.66500       -0.48100        3.43200
H          5.48100        1.26000        2.09500
