16
3148-73-0.pdb
C          1.22300        0.00700        0.01300
C          2.72400        0.03800       -0.03700
O          3.34900        0.60400       -0.93000
N          3.33600       -0.62400        1.00300
N          4.73200       -0.64300        1.03400
C          5.37300       -1.29200        2.06300
C          6.87500       -1.23900        1.98300
O          4.77600       -1.86600        2.97200
H          0.82100        0.55200       -0.84800
H          0.86800        0.48900        0.92800
H          0.86700       -1.02500       -0.02900
H          2.84500       -1.10000        1.75800
H          5.20800       -0.16100        0.27400
H          7.21400       -0.68300        1.10400
H          7.26800       -2.25800        1.92100
H          7.26600       -0.74600        2.87700
