14
3149-28-8.pdb
C          2.93100       -1.27900        0.27400
O          2.41600        0.03600        0.09900
C          3.16700        0.79800       -0.77100
C          2.74100        2.09600       -1.02200
N          3.40800        2.93800       -1.84900
C          4.52400        2.42200       -2.41100
C          4.94900        1.12600       -2.16300
N          4.28300        0.28400       -1.34000
H          2.30800       -1.78700        1.01700
H          3.95600       -1.26200        0.66100
H          2.87200       -1.85000       -0.65900
H          1.84500        2.49200       -0.55900
H          5.07300        3.08200       -3.07300
H          5.84700        0.72900       -2.62200
