26
31551-45-8.pdb
O          2.67100       -0.45100       -1.14600
N          2.34100       -0.01300       -0.03400
O          1.42600       -0.47300        0.66100
C          3.09100        1.13300        0.49500
C          4.14600        1.68300       -0.27600
C          4.88600        2.77400        0.20000
C          4.56400        3.29200        1.44200
C          5.15800        4.37200        2.20100
C          6.20800        5.22200        1.89900
C          6.60300        6.15900        2.86500
C          5.94000        6.23200        4.11500
C          4.86100        5.39100        4.41600
C          4.50100        4.48200        3.44100
C          3.43600        3.45600        3.47300
O          2.65600        3.25000        4.37800
C          3.51600        2.72300        2.19100
C          2.75900        1.65400        1.75100
N          6.40900        7.19500        5.11900
O          7.37600        7.91000        4.82100
O          5.81500        7.23000        6.20500
H          4.40200        1.26200       -1.24800
H          5.69600        3.18400       -0.39600
H          6.72800        5.16700        0.94700
H          7.43600        6.82300        2.63700
H          4.33000        5.42400        5.36300
H          1.96200        1.25100        2.36900
