26
31603-77-7.pdb
N          1.00200       -0.68400       -0.13300
C          2.23000       -0.40400       -0.08500
C          3.71100       -0.06600       -0.02800
C          4.26700        0.23100       -1.39200
C          4.22900        1.52800       -1.90900
C          4.70200        1.78700       -3.20000
C          5.23300        0.76600       -4.00700
C          5.27000       -0.52900       -3.46200
C          4.78500       -0.80000       -2.18000
C          5.72700        1.03700       -5.37800
C          6.32700        2.26400       -5.71800
C          6.79400        2.51500       -7.01100
C          6.68500        1.53800       -7.99500
C          6.09900        0.31400       -7.69000
C          5.61900        0.07300       -6.39900
H          4.25300       -0.90200        0.42900
H          3.85700        0.79600        0.63500
H          3.82100        2.34900       -1.32300
H          4.62700        2.80600       -3.57400
H          5.68400       -1.35800       -4.03200
H          4.81300       -1.82300       -1.81200
H          6.45000        3.04400       -4.97100
H          7.24800        3.47300       -7.24600
H          7.05400        1.72900       -8.99700
H          6.00900       -0.45400       -8.45200
H          5.14400       -0.88600       -6.20400
