16
3167-49-5.pdb
N          2.26500       -0.13000        0.22000
C          0.88100       -0.08200        0.10100
C          0.13200       -1.25100        0.09600
C         -1.25700       -1.16400        0.01100
C         -1.85900        0.09200       -0.05400
C         -1.03000        1.20300       -0.06400
N          0.32200        1.13900        0.03200
C         -3.32700        0.19000       -0.17100
O         -3.86600        1.29000        0.39400
O         -3.99500       -0.67600       -0.70700
H          2.68500       -0.73500       -0.47600
H          2.61100        0.82300        0.15000
H          0.61800       -2.21900        0.16400
H         -1.86000       -2.06900       -0.00400
H         -1.41700        2.21200       -0.16800
H         -3.28400        1.81000        0.97900
