9
3179-31-5.pdb
S          0.88700        0.03500        0.10400
C          2.54400       -0.07400        0.12900
N          3.36200        1.04600        0.14000
N          4.65900        0.61300       -0.17400
C          4.53000       -0.74500       -0.08100
N          3.33100       -1.20600        0.08100
H          3.00600        1.91100       -0.25300
H          5.40200        1.01300        0.39900
H          5.45800       -1.33800       -0.11800
