20
31805-83-1.pdb
C          1.13200        0.21200        0.09500
S          2.90900       -0.05600       -0.11200
C          3.50000        1.58700        0.43300
C          5.04000        1.67200        0.44600
O          5.58200        1.49900       -0.87400
C          5.55400        3.02200        0.96300
S          5.08600        3.36800        2.69200
C          5.84900        5.00000        2.86400
H          0.59200       -0.68700       -0.21600
H          0.79900        1.04800       -0.52600
H          0.89200        0.41400        1.14300
H          3.08900        1.76700        1.43000
H          3.09100        2.32800       -0.26000
H          5.45900        0.87000        1.06500
H          5.02100        1.98300       -1.50300
H          5.18900        3.83100        0.31800
H          6.65200        3.04200        0.89000
H          5.67600        5.36300        3.88200
H          5.39900        5.71000        2.16500
H          6.92400        4.94100        2.69500
