24
3187-19-7.pdb
C          0.95100       -0.08200        0.09300
O          2.37200       -0.03500        0.05700
C          2.95300        1.19900        0.03900
C          2.30300        2.41600        0.08400
C          3.05000        3.60300        0.03200
O          2.32600        4.77900        0.07400
C          4.47300        3.62900       -0.06200
C          5.17400        4.97100       -0.16600
O          4.38500        6.06800       -0.07300
O          6.36300        5.13800       -0.33900
C          5.12400        2.37600       -0.08000
O          6.42700        1.97900       -0.13700
C          7.54000        2.84200       -0.20400
C          4.34100        1.19600       -0.03100
H          0.64800       -1.13300        0.06900
H          0.51600        0.41100       -0.78300
H          0.57000        0.35600        1.02200
H          1.22300        2.46200        0.15600
H          1.37200        4.57300        0.02400
H          3.43500        5.85500        0.04900
H          8.43600        2.21200       -0.19300
H          7.60300        3.48300        0.67900
H          7.55900        3.38100       -1.15400
H          4.85100        0.23000       -0.05500
