20
3189-13-7.pdb
C          1.10600        0.24500       -0.35800
O          2.44300       -0.06600        0.02000
C          3.01300       -1.11500       -0.65400
C          2.68000       -1.49800       -1.95400
C          3.31400       -2.58800       -2.56600
C          4.30000       -3.30100       -1.85900
C          5.10800       -4.43200       -2.15800
C          5.90400       -4.67800       -1.06200
N          5.61400       -3.73400       -0.11300
C          4.63300       -2.88500       -0.57100
C          4.01700       -1.79000        0.05000
H          0.71500        0.97300        0.36000
H          0.46500       -0.64300       -0.31700
H          1.07100        0.70900       -1.34900
H          1.93700       -0.95800       -2.53000
H          3.04600       -2.87800       -3.57800
H          5.10100       -5.00500       -3.07500
H          6.64700       -5.44100       -0.87700
H          6.04800       -3.66800        0.79700
H          4.29000       -1.48100        1.05300
