20
3189-22-8.pdb
C          1.38300       -0.65700        0.20000
O          2.51000        0.12200       -0.18400
C          3.12300        0.83700        0.80600
C          2.70800        0.92100        2.14300
C          3.41600        1.67900        3.07800
C          4.56500        2.38400        2.70900
C          5.00200        2.32600        1.37400
C          6.09400        2.90100        0.66500
C          6.01000        2.48500       -0.64400
N          4.90900        1.67700       -0.75500
C          4.27500        1.56100        0.46300
H          1.04300       -1.21200       -0.68100
H          0.55900       -0.01700        0.53000
H          1.64900       -1.39000        0.96900
H          1.82300        0.39900        2.49000
H          3.07000        1.72200        4.10800
H          5.11000        2.97000        3.44300
H          6.85700        3.55000        1.07300
H          6.63400        2.69300       -1.50300
H          4.58700        1.22200       -1.59700
