20
31891-06-2.pdb
C          6.37100       -0.79200        0.71900
C          5.32400       -0.64000       -0.37000
O          5.30000        0.73600       -0.76700
C          4.50900        1.55200       -0.00800
O          3.60700        1.15300        0.71900
C          4.94200        2.94500       -0.09300
C          6.00100        3.44100       -0.93700
C          6.24700        4.78000       -0.75200
S          5.19600        5.46200        0.40300
C          4.41700        3.96400        0.68700
N          3.43200        3.87900        1.60300
H          6.48300       -1.83600        1.01800
H          6.10700       -0.19700        1.60100
H          7.33900       -0.41600        0.36800
H          4.34100       -0.99400       -0.04000
H          5.60800       -1.23000       -1.24700
H          6.56900        2.82700       -1.62700
H          6.99800        5.38900       -1.23700
H          3.04700        4.70600        2.04500
H          2.89200        3.02000        1.71600
