22
319-78-8.pdb
C          0.97600       -0.01100        0.06800
C          2.49800       -0.06200       -0.01300
C          3.03000       -0.65000       -1.34000
C          2.54500        0.16500       -2.54600
C          4.57300       -0.79700       -1.37400
N          5.32200        0.48500       -1.21000
C          5.10700       -1.80500       -0.33600
O          6.34100       -1.43700        0.10700
O          4.54100       -2.82500        0.02700
H          0.66600        0.34400        1.05600
H          0.53700       -1.00000       -0.09100
H          0.55600        0.68000       -0.66900
H          2.86000       -0.66700        0.82600
H          2.88000        0.95400        0.13700
H          2.60600       -1.65900       -1.44300
H          2.80500        1.22400       -2.44700
H          1.45800        0.09600       -2.66000
H          2.98600       -0.21000       -3.47600
H          4.87000       -1.21200       -2.34500
H          4.95500        0.97400       -0.38800
H          5.07500        1.09500       -1.99500
H          6.54800       -0.58200       -0.34800
