20
32025-65-3.pdb
C          1.24900        0.50100        0.47700
O          2.42400       -0.16500        0.03300
C          3.03500        0.33400       -1.08300
C          2.58100        1.40400       -1.85600
C          3.30600        1.81700       -2.97700
C          4.48400        1.16100       -3.33800
C          4.94100        0.08000       -2.57800
C          4.21500       -0.32000       -1.44700
C          6.18900       -0.65200       -2.89600
O          6.80700       -1.26400       -2.02900
C          6.76600       -0.70600       -4.29200
O          6.18300       -0.27600       -5.27400
H          0.90400        0.00200        1.38800
H          0.44800        0.42600       -0.26700
H          1.45800        1.54600        0.72900
H          1.66900        1.93900       -1.61300
H          2.95000        2.65500       -3.57100
H          5.02800        1.51900       -4.20800
H          4.56500       -1.15300       -0.84000
H          7.75300       -1.19300       -4.34300
