37
321-30-2.pdb
N         -0.36600        0.70400        1.29500
C          0.99500        0.62100        1.61200
N          2.04600        2.20800        1.56800
C          3.85600        2.11000        2.04100
N          4.61500        0.45200        2.41600
C          3.71100       -1.13300        2.03300
N          4.08300       -2.42400        1.97100
C          2.97700       -3.08800        1.65400
N          1.75300       -2.42500        1.45000
C          1.89400       -1.07000        1.55600
N          1.56100       -1.15200       -2.05200
C          2.93800       -1.04200       -2.20700
N          3.47600        0.17900       -2.42400
C          4.83500        0.28100       -2.42400
N          5.74200       -0.67900       -2.20600
C          5.17400       -1.85900       -1.90400
N          5.83400       -2.98100       -1.47900
C          4.88700       -3.84800       -1.20000
N          3.65500       -3.37400       -1.55000
C          3.80800       -2.07100       -1.92400
O          1.93900        0.80700       -0.25500
S          3.05500        0.55500        0.97400
O          2.54900       -0.11400        2.95000
O          4.31500        0.24900        0.31800
O          2.64100        1.01600        2.68300
H         -0.58200        1.60400        0.88100
H         -0.75300       -0.11100        0.84600
H          4.49700        2.95700        1.82200
H          2.98500       -4.16800        1.54500
H          0.88700       -2.90800        1.26400
H          1.16000       -0.25100       -1.78900
H          1.26400       -1.89500       -1.44000
H          5.23600        1.28500       -2.53400
H          5.02700       -4.81700       -0.73900
H          2.78000       -3.86700       -1.45700
H          2.47600        1.13100       -1.02300
H          3.24900        0.29000        3.52700
