23
32137-76-1.pdb
C          6.65300       -0.01900        0.68300
C          5.51000       -0.58800       -0.13900
O          5.28100        0.29400       -1.24300
C          4.47200        1.36600       -0.98700
O          3.69700        1.42800       -0.03900
C          4.77000        2.42800       -1.93300
S          4.01600        3.95900       -1.77600
C          4.96300        4.55900       -3.08200
C          4.98000        5.84500       -3.64700
C          5.84400        6.08300       -4.72000
C          6.66900        5.07600       -5.21100
C          6.65200        3.80200       -4.63400
C          5.78400        3.53600       -3.55700
N          5.66400        2.32700       -2.90000
H          6.90600       -0.68100        1.51800
H          6.39400        0.96700        1.08000
H          7.54000        0.12000        0.05600
H          4.60800       -0.73500        0.46400
H          5.79400       -1.56300       -0.55000
H          4.33900        6.63200       -3.26300
H          5.86700        7.06900       -5.17900
H          7.33500        5.27700       -6.04700
H          7.29800        3.01500       -5.00900
