19
3216-48-6.pdb
N          5.60600       -0.68700        1.98500
C          4.74700       -0.39800        1.10800
C          3.71100       -0.05000        0.05200
C          4.13200        1.19100       -0.67900
C          4.93700        1.19600       -1.80100
S          5.20200        2.75900       -2.41600
C          4.23900        3.48700       -1.19200
C          3.95000        4.85800       -1.04800
C          3.15200        5.27600        0.01900
C          2.66600        4.35600        0.93600
C          2.95600        2.99700        0.78900
C          3.74100        2.53500       -0.29800
H          2.73400        0.08100        0.52800
H          3.61900       -0.88900       -0.64700
H          5.38900        0.34600       -2.29700
H          4.33900        5.58300       -1.75800
H          2.91700        6.33100        0.13300
H          2.05700        4.69100        1.77100
H          2.56800        2.29800        1.52600
