39
321744-26-7.pdb
C          5.54200        1.16400       -2.28200
O          5.44200        0.09900       -1.33500
C          4.87500        0.42800       -0.14200
O          4.46800        1.54800        0.15200
C          4.74900       -0.80300        0.77400
C          5.32800       -2.11600        0.23400
C          4.86000       -3.28600        1.11100
O          5.45500       -4.49700        0.65800
C          5.18800       -3.05800        2.58800
C          4.62700       -1.71700        3.06100
N          5.11300       -0.64500        2.19400
C          6.18900        0.09700        2.66700
O          6.51900        0.07700        3.84800
O          6.82700        0.83700        1.71700
C          7.84300        1.79400        2.14000
C          9.05200        1.09300        2.77600
C          8.32300        2.52000        0.86900
C          7.24600        2.85500        3.07700
H          5.61100        0.71900       -3.27900
H          6.45400        1.73600       -2.09100
H          4.66400        1.81700       -2.26400
H          3.65600       -0.94700        0.78700
H          6.42400       -2.07800        0.20100
H          5.00000       -2.30200       -0.79700
H          3.77600       -3.40500        1.00200
H          6.41200       -4.43600        0.77900
H          6.27700       -3.08800        2.73000
H          4.78200       -3.87800        3.19200
H          4.91500       -1.55300        4.10500
H          3.53300       -1.71700        3.02300
H          9.47900        0.35300        2.09000
H          8.78900        0.55100        3.68800
H          9.83300        1.81200        3.04500
H          8.76500        1.82000        0.15100
H          9.07500        3.28400        1.10600
H          7.48900        3.01200        0.35600
H          6.90700        2.42900        4.02600
H          6.37100        3.32900        2.61800
H          7.97900        3.63300        3.31700
