17
3222-49-9.pdb
C          2.47200       -0.08600        0.01600
C          0.97800       -0.00300        0.02000
C          0.18300       -1.14400        0.01900
N         -1.17100       -1.12300       -0.00200
C         -1.76300        0.09500       -0.03000
C         -1.06400        1.29200        0.00400
C          0.33200        1.23700        0.01600
C         -1.73700        2.60600       -0.03500
O         -2.94200        2.64100        0.57000
O         -1.22200        3.58700       -0.54500
H          2.81600       -1.12500        0.00100
H          2.88000        0.39100        0.91200
H          2.87500        0.41400       -0.87100
H          0.62000       -2.13900        0.02500
H         -2.84500        0.05800       -0.10300
H          0.91100        2.15900        0.01000
H         -3.17500        1.87400        1.12400
