18
3227-17-6.pdb
C          3.14300       -1.10500       -0.83500
C          2.62200        0.04000        0.02800
N          1.10100        0.01700       -0.04600
C          3.09300        1.41900       -0.44200
C          2.58200        1.77000       -1.83300
O          1.41500        1.32000       -2.08400
O          3.34200        2.46800       -2.54700
C          3.06000       -0.12500        1.52900
O          2.11600        0.22300        2.31800
O          4.17000       -0.65200        1.77000
H          4.23800       -1.09500       -0.88800
H          2.76500       -1.05500       -1.86100
H          2.84500       -2.07600       -0.42100
H          0.81000        0.59300        0.75900
H          0.72500       -0.91600        0.08400
H          0.82100        0.46200       -0.95200
H          4.18900        1.47100       -0.42500
H          2.73200        2.20100        0.24000
