15
3237-22-7.pdb
N         -1.52700       -4.91900       -0.84600
C         -1.32400       -3.79700       -0.62900
C         -1.12500       -2.41500       -0.34000
C          0.06300       -1.88100        0.00200
C          1.27800       -2.61900        0.04800
O          1.53900       -3.71400       -0.74100
C          2.78400       -4.16400       -0.46000
C          3.36500       -3.38300        0.50500
C          2.40900       -2.38700        0.82200
C         -2.26500       -1.56400       -0.38000
N         -3.17700       -0.84500       -0.40600
H          0.12600       -0.82600        0.26400
H          3.10400       -5.03300       -1.01800
H          4.35200       -3.51300        0.92400
H          2.52500       -1.59300        1.54800
