45
3247-00-5.pdb
C          2.56000        0.58400        0.42500
C          1.08100        0.35000        0.35300
C          0.22300        0.84500        1.33500
C         -1.16400        0.69400        1.20900
C         -1.74500        0.05000        0.09600
C         -0.85200       -0.53100       -0.82400
C          0.53400       -0.36200       -0.71400
C         -3.29000       -0.02300       -0.10400
O         -3.89600        0.57000        1.06600
C         -3.75900        0.80400       -1.34400
C         -3.36700        0.45000       -2.65000
C         -3.84800        1.12500       -3.77700
C         -4.76400        2.16700       -3.64000
C         -5.32900        2.86000       -4.84200
C         -5.18700        2.52200       -2.35800
C         -4.69600        1.85200       -1.23100
C         -3.86900       -1.45400       -0.09000
C         -3.29200       -2.47400        0.68900
C         -3.85700       -3.75500        0.74600
C         -5.02900       -4.04900        0.04400
C         -5.65700       -5.40800        0.10300
C         -5.62900       -3.04300       -0.71700
C         -5.06400       -1.76500       -0.77100
H          2.83900        1.12700        1.33400
H          2.88300        1.18400       -0.43300
H          3.09900       -0.36800        0.42100
H          0.62100        1.36300        2.20400
H         -1.77900        1.08800        2.01500
H         -1.21500       -1.13200       -1.65200
H          1.18300       -0.78700       -1.47800
H         -3.61100        1.49800        1.06200
H         -2.71300       -0.39600       -2.83100
H         -3.51900        0.80600       -4.76400
H         -4.84400        2.52300       -5.76400
H         -5.17900        3.94200       -4.76300
H         -6.40000        2.64900       -4.92800
H         -5.92700        3.30900       -2.22600
H         -5.11000        2.13600       -0.26600
H         -2.40000       -2.27900        1.28100
H         -3.38000       -4.51400        1.36100
H         -5.13500       -6.06000        0.81000
H         -5.62500       -5.87900       -0.88400
H         -6.69900       -5.32900        0.43000
H         -6.54700       -3.23900       -1.26300
H         -5.59500       -1.01000       -1.34500
