28
3248-05-3.pdb
C          1.06100        0.04200        0.03500
C          2.56400       -0.05200        0.03600
C          3.30900        1.12600        0.03700
C          4.68200        1.02800        0.04000
N          5.34800       -0.14300        0.04200
C          4.66000       -1.31500        0.04000
C          3.24300       -1.29800        0.03700
C          2.54400       -2.51100        0.03500
C          3.21900       -3.72300        0.03600
C          4.62100       -3.77300        0.03900
C          5.34200       -4.99900        0.03900
C          4.71100       -6.36700        0.03600
C          6.73800       -4.96100        0.04300
C          7.36500       -3.73600        0.04500
N          6.70400       -2.56400        0.04500
C          5.34700       -2.55000        0.04100
H          0.71900        1.08200        0.03500
H          0.64900       -0.43800        0.92900
H          0.65100       -0.43700       -0.86100
H          2.83600        2.10200        0.03600
H          5.30900        1.91500        0.04100
H          1.45800       -2.53800        0.03300
H          2.61200       -4.62100        0.03300
H          3.62000       -6.35900        0.03500
H          5.02400       -6.92100        0.92800
H          5.02700       -6.91800       -0.85500
H          7.33000       -5.87100        0.04400
H          8.44700       -3.65700        0.04900
