29
32499-64-2.pdb
C          1.58600        1.65000       -0.02500
C          2.45900        0.47800        0.38900
O          3.32400        0.95100        1.43000
C          4.47600        1.51000        0.98200
O          4.92400        1.36600       -0.14900
N          5.06400        2.31200        1.92000
C          6.18400        3.16500        1.60400
C          6.90900        3.25600        2.95200
C          5.83200        2.92100        4.00300
C          4.53800        2.76100        3.19600
C          3.84000        4.11700        3.01300
C          4.69200        5.09000        2.20500
O          4.55200        6.30200        2.33600
C          5.63200        4.52000        1.15300
H          0.85100        1.35000       -0.77600
H          2.20000        2.46400       -0.42900
H          1.06800        2.05700        0.85000
H          3.01100        0.07200       -0.46600
H          1.84800       -0.33500        0.79200
H          6.81500        2.73200        0.82200
H          7.37000        4.23400        3.12100
H          7.70200        2.50100        3.00200
H          5.76500        3.67600        4.79200
H          6.08700        1.96600        4.47900
H          3.85300        2.03400        3.64400
H          3.63800        4.56900        3.99200
H          2.88700        3.99600        2.48700
H          6.45000        5.22800        0.98600
H          5.05800        4.41500        0.22500
