25
3249-68-1.pdb
C          4.67500       -2.44600       -1.12200
C          4.48300       -1.01000       -0.66600
C          4.71200       -0.84800        0.83400
C          4.57100        0.61000        1.24700
O          3.73400        1.34700        0.72200
C          5.37600        1.10000        2.41900
C          6.85400        0.97300        2.22700
O          7.40500        0.56400        1.21600
O          7.48700        1.29000        3.39200
C          8.82700        0.79300        3.51300
C          8.74300       -0.57500        4.16500
H          4.49700       -2.52400       -2.20000
H          3.97700       -3.11700       -0.61300
H          5.69500       -2.79100       -0.92200
H          3.46900       -0.68500       -0.92600
H          5.17500       -0.36100       -1.21600
H          5.70700       -1.22100        1.09500
H          3.98600       -1.43300        1.41000
H          5.07300        0.51700        3.29600
H          5.14000        2.15700        2.59200
H          9.38500        1.48600        4.15100
H          9.34300        0.74500        2.54800
H          8.27400       -0.49500        5.15200
H          9.73200       -1.02400        4.27700
H          8.11300       -1.25000        3.57500
