59
32503-27-8.pdb
C          0.16300        0.06700       -0.46500
C          1.67800        0.14700       -0.30600
C          2.38400        0.57300       -1.58800
C          3.91500        0.38200       -1.58600
N          4.67400        0.87300       -2.90000
C          4.38000       -0.02700       -4.14500
C          2.94700       -0.01600       -4.65100
C          2.62800       -1.02400       -5.75600
C          1.10800       -1.10400       -5.91600
C          4.38600        2.38900       -3.19300
C          4.84300        3.30400       -2.04300
C          4.56500        4.79600       -2.21500
C          5.06700        5.53500       -0.97200
C          6.23900        0.75000       -2.62700
C          6.74200       -0.66500       -2.34900
C          8.25900       -0.70500       -2.13100
C          8.69500       -2.12200       -1.78500
O          2.55300       -1.27800        2.27500
S          4.09500       -1.13400        1.82700
O          4.11300       -1.97400        0.64300
O          4.25100        0.28500        1.54500
O          4.81600       -1.65000        2.96800
H         -0.28600       -0.32600        0.45300
H         -0.11100       -0.61500       -1.27900
H         -0.27000        1.04700       -0.67500
H          2.00200       -0.86800       -0.07400
H          1.92900        0.81700        0.51800
H          2.08500        1.58600       -1.86400
H          1.93200       -0.11600       -2.28000
H          4.15500       -0.67700       -1.49500
H          4.37400        0.93300       -0.76700
H          4.63500       -1.05000       -3.86000
H          5.06200        0.30300       -4.93900
H          2.61500        0.98600       -4.93000
H          2.30700       -0.37600       -3.87300
H          2.99600       -2.01900       -5.47400
H          3.10100       -0.73900       -6.69800
H          0.62600       -1.39700       -4.97300
H          0.82800       -1.84300       -6.67000
H          0.69500       -0.13200       -6.20600
H          3.31600        2.49400       -3.38400
H          4.92600        2.63500       -4.11600
H          5.92600        3.22700       -1.91400
H          4.37400        2.98900       -1.10700
H          3.49300        4.98100       -2.34300
H          5.08300        5.18400       -3.09900
H          4.53700        5.19200       -0.07700
H          4.92000        6.61400       -1.06400
H          6.13700        5.35100       -0.81300
H          6.47300        1.36500       -1.75700
H          6.73400        1.17400       -3.51200
H          6.51500       -1.34000       -3.17800
H          6.26000       -1.05800       -1.44900
H          8.55100       -0.02700       -1.32000
H          8.78300       -0.37500       -3.03600
H          8.20400       -2.46400       -0.86700
H          9.77700       -2.17200       -1.63100
H          8.43100       -2.81700       -2.58900
H          2.28700       -2.13700        1.89000
