37
325145-35-5.pdb
C          3.62500       -1.23600        2.52700
C          4.11700       -1.48700        1.11100
C          2.99200       -1.56700        0.05400
C          3.60800       -1.76000       -1.36300
N          4.23400       -3.08200       -1.57000
C          3.23000       -4.13300       -1.32000
C          2.52500       -4.02300        0.04300
N          2.04500       -2.66800        0.32300
C          0.78100       -2.52500        0.86700
O          0.07300       -3.48900        1.14400
O          0.38900       -1.22700        1.02300
C         -0.97600       -0.95000        1.44800
C         -1.25500       -1.48700        2.86200
C         -1.11400        0.58200        1.49500
C         -1.99300       -1.47400        0.42200
H          4.48200       -1.14500        3.20400
H          3.00600       -2.06200        2.88800
H          3.04800       -0.30900        2.58700
H          4.71300       -2.40600        1.11900
H          4.80100       -0.67500        0.83600
H          2.45300       -0.61400        0.05800
H          4.36100       -0.98700       -1.55200
H          2.82600       -1.62400       -2.12200
H          4.99500       -3.19700       -0.90100
H          3.71800       -5.11200       -1.39200
H          2.48400       -4.10000       -2.12300
H          3.20700       -4.30000        0.85400
H          1.69600       -4.73900        0.06000
H         -0.53100       -1.08400        3.57700
H         -1.17700       -2.57600        2.92000
H         -2.26200       -1.21700        3.19700
H         -0.40200        1.02100        2.20400
H         -2.12400        0.88600        1.79500
H         -0.89900        1.02800        0.51800
H         -1.97700       -2.56400        0.33600
H         -1.77000       -1.08000       -0.57600
H         -3.01600       -1.18500        0.68800
