19
3251-56-7.pdb
C          1.04200       -0.06300       -0.01700
O          2.46200       -0.09400       -0.03300
C          3.12100        1.10700       -0.04400
C          2.50100        2.35800       -0.03800
C          3.28500        3.52200       -0.05900
C          4.68400        3.44800       -0.08500
C          5.30500        2.19900       -0.08300
C          4.52400        1.04100       -0.06200
O          5.13000       -0.18700       -0.05600
N          2.62700        4.83600       -0.05300
O          1.38900        4.86200       -0.03200
O          3.35000        5.84300       -0.07000
H          0.68300       -1.09600       -0.02900
H          0.64700        0.43700       -0.90800
H          0.67100        0.40900        0.89900
H          1.41900        2.44400       -0.01700
H          5.29800        4.34700       -0.10500
H          6.38900        2.14400       -0.10000
H          6.09300       -0.07800       -0.03700
