27
32529-79-6.pdb
C          1.15500       -0.76200       -2.47900
O          2.57800       -0.69900       -2.36800
C          3.03000        0.01100       -1.29500
O          2.31600        0.57500       -0.47500
C          4.55000        0.02800       -1.28400
C          5.09000        0.14000        0.14900
C          6.61500        0.24400        0.17500
C          7.11600        1.40700       -0.68500
C          6.58500        1.28700       -2.12100
C          5.06000        1.18400       -2.15000
C          8.63400        1.43800       -0.66500
O          9.14100        2.20000        0.33200
O          9.35300        0.82000       -1.43600
H          0.90700       -1.36500       -3.35800
H          0.73600        0.24000       -2.61900
H          0.72000       -1.24400       -1.59800
H          4.90200       -0.92600       -1.69900
H          4.77200       -0.72900        0.73800
H          4.66600        1.02200        0.64500
H          7.05200       -0.69800       -0.18100
H          6.95800        0.36900        1.21000
H          6.74700        2.35700       -0.27700
H          7.01300        0.40300       -2.61100
H          6.90600        2.15400       -2.71100
H          4.72200        1.05500       -3.18600
H          4.62500        2.13000       -1.80100
H          8.47300        2.63700        0.89300
