31
325775-44-8.pdb
C          3.37400        0.43200       -1.61200
C          2.70000       -0.06300       -0.32600
C          2.98500        0.84800        0.87500
C          1.18200       -0.08200       -0.56500
O          3.07000       -1.43100       -0.02000
C          4.37300       -1.73700        0.22200
O          5.31200       -0.95400        0.14100
N          4.52700       -3.03600        0.60800
C          5.67200       -3.59600        1.30400
C          4.66600       -4.34700        2.19600
C          4.51600       -3.78000        3.60100
N          3.53100       -4.55500        4.35400
C          3.56100       -3.94400        1.19700
H          3.02900        1.43500       -1.88200
H          3.15600       -0.24700       -2.44500
H          4.46300        0.47700       -1.52700
H          2.63700        1.87100        0.69500
H          4.05100        0.89800        1.11400
H          2.48700        0.46600        1.77400
H          0.80500        0.91300       -0.83300
H          0.64500       -0.42200        0.32800
H          0.92000       -0.77800       -1.37000
H          6.30100       -2.85700        1.80700
H          6.28400       -4.22800        0.65400
H          4.86700       -5.42700        2.21200
H          4.21600       -2.72500        3.57900
H          5.47600       -3.83500        4.12600
H          2.60700       -4.43000        3.94800
H          3.47100       -4.18700        5.30300
H          2.68500       -3.45400        1.63100
H          3.24600       -4.73300        0.50800
