14
32597-34-5.pdb
O          1.08200       -0.34100        0.10400
N          2.43800       -0.07000       -0.07500
C          3.04600        0.83000        0.78100
C          2.81500        1.16300        2.05600
C          1.82800        0.62000        2.95100
C          1.89900        1.21300        4.14200
C          2.99800        2.14900        3.91900
N          3.53200        2.12100        2.73800
H          0.99900       -1.26900       -0.18400
H          2.67000        0.13100       -1.05100
H          3.86900        1.33800        0.28200
H          1.13800       -0.16300        2.67700
H          1.33100        1.06400        5.03900
H          3.31700        2.81400        4.73300
