29
3262-72-4.pdb
C          2.85900       -1.25000       -1.25200
C          2.59900       -0.27100       -0.10300
C          3.17200        1.12200       -0.39600
C          1.08100       -0.12700        0.09300
O          3.09300       -0.83600        1.14300
C          4.41800       -0.97400        1.35200
O          5.32200       -0.61900        0.61700
N          4.67500       -1.55300        2.56500
C          4.04600       -2.84100        2.91500
C          4.98800       -3.61500        3.84500
O          6.28900       -3.69600        3.24900
C          2.68000       -2.74200        3.59400
O          2.22400       -1.47800        3.74100
O          2.04800       -3.71400        3.98500
H          2.41100       -0.89800       -2.18700
H          2.44300       -2.23700       -1.01900
H          3.93000       -1.39600       -1.42400
H          2.73700        1.54400       -1.30900
H          4.25600        1.11200       -0.53700
H          2.97100        1.80900        0.43300
H          0.59500        0.28100       -0.80000
H          0.85900        0.53500        0.93900
H          0.62100       -1.09300        0.32800
H          5.68700       -1.59600        2.67600
H          3.91400       -3.39000        1.97400
H          4.62900       -4.62900        4.05000
H          5.10500       -3.09700        4.80400
H          6.21100       -4.20100        2.41900
H          2.83500       -0.84600        3.30500
