22
327-57-1.pdb
C          6.05900        7.36000        0.25000
C          5.13100        6.16200        0.38500
C          5.60500        5.01100       -0.50200
C          4.68500        3.78800       -0.40100
C          5.13800        2.58800       -1.24900
N          6.43300        2.06200       -0.77300
C          5.14900        2.94200       -2.74700
O          6.34500        2.73600       -3.35000
O          4.18200        3.37700       -3.35800
H          5.72500        8.18000        0.89300
H          6.07800        7.72400       -0.78300
H          7.08200        7.09600        0.53800
H          4.11200        6.45800        0.11000
H          5.10600        5.84100        1.43300
H          6.62500        4.74300       -0.20700
H          5.64900        5.35500       -1.54200
H          3.67200        4.08000       -0.70800
H          4.61000        3.47600        0.64900
H          4.40900        1.77800       -1.13500
H          7.17600        2.75100       -0.71900
H          6.70700        1.18400       -1.20500
H          6.99300        2.41100       -2.69700
