15
3272-08-0.pdb
O          1.15800        0.21100        0.16000
C          2.42700        0.13700        0.06400
C          3.21700        1.30400        0.02300
C          4.61200        1.29600       -0.12200
C          5.29400        0.08600       -0.23300
C          4.57800       -1.10400       -0.18200
C          3.17700       -1.06200       -0.03200
N          2.51200       -2.36700       -0.00500
O          2.07000       -2.78100        1.08000
O          2.61400       -3.06200       -1.03400
C          6.71500        0.07200       -0.40200
N          7.86900        0.06000       -0.54100
H          2.71000        2.26900        0.09800
H          5.14300        2.24400       -0.15500
H          5.08500       -2.06200       -0.26800
