26
3282-56-2.pdb
C          0.94100        0.08900       -0.01800
C          2.48600        0.06500        0.07300
C          3.01000       -1.05900       -0.84200
C          2.97000        1.42100       -0.49000
C          2.99100       -0.19800        1.50700
C          2.23500       -0.95400        2.42400
C          2.69600       -1.21300        3.72000
C          3.94300       -0.72600        4.12000
C          4.72600        0.00900        3.22800
C          4.25300        0.26100        1.93400
N          4.43300       -0.99700        5.47500
O          3.70100       -1.65000        6.23400
O          5.55100       -0.56000        5.78300
H          0.60800        0.35100       -1.02900
H          0.51600        0.82600        0.67300
H          0.49600       -0.88600        0.20900
H          2.68800       -0.90800       -1.87900
H          2.64200       -2.04100       -0.52100
H          4.10500       -1.10100       -0.83900
H          2.56700        1.59500       -1.49600
H          4.05900        1.47300       -0.58500
H          2.64500        2.25300        0.14600
H          1.26800       -1.36900        2.15000
H          2.07400       -1.79800        4.39600
H          5.70600        0.38700        3.51500
H          4.90300        0.81800        1.26500
