45
32887-01-7.pdb
C          2.46100        1.04500       -1.01700
C          1.55800        0.45000        0.06700
C          2.35200        0.21800        1.36000
S          0.99100       -1.22000       -0.49500
C         -0.49100       -1.14000        0.58300
C         -1.89300       -1.37400       -0.03200
N         -1.85600       -2.17900       -1.25400
C         -2.83400       -1.98400       -2.06700
N         -3.02400       -2.64900       -3.25500
C         -4.15400       -2.32500       -4.11900
C         -5.23900       -3.39300       -3.99700
C         -4.92900       -4.69300       -4.73700
C         -3.61000       -5.36000       -4.35200
C         -2.39000       -4.55100       -4.78800
C         -1.94700       -3.48800       -3.78500
C         -1.90900        0.17400       -0.16700
O         -2.54200        1.02000       -0.75300
N         -0.80900        0.31000        0.65400
C          0.24400        1.24600        0.23600
C          0.33600        2.42500        1.20400
O         -0.60500        2.42300        2.17900
O          1.17200        3.31500        1.12000
H          3.37200        0.45100       -1.15100
H          2.77400        2.06200       -0.75500
H          1.95300        1.10000       -1.98700
H          3.17600       -0.48900        1.19500
H          1.72700       -0.18600        2.16500
H          2.80300        1.14500        1.72700
H         -0.34600       -1.57300        1.57700
H         -2.63200       -1.73700        0.68900
H         -3.63000       -1.24500       -1.85600
H         -3.83300       -2.19700       -5.15900
H         -4.58500       -1.36200       -3.82000
H         -6.16900       -2.98800       -4.41400
H         -5.43900       -3.61300       -2.94100
H         -4.93800       -4.50300       -5.81800
H         -5.74600       -5.40000       -4.54600
H         -3.57200       -6.33200       -4.86100
H         -3.57900       -5.57000       -3.27600
H         -2.56900       -4.09600       -5.77000
H         -1.54700       -5.24000       -4.93000
H         -1.19800       -2.84200       -4.25900
H         -1.43900       -4.00500       -2.96100
H         -0.06000        1.68000       -0.72800
H         -1.23200        1.67500        2.05900
