27
3289-28-9.pdb
C          2.92200       -2.07200        1.07200
C          2.76000       -0.80800        0.24700
O          3.19500       -1.08800       -1.09000
C          4.53500       -0.95300       -1.30600
O          5.30400       -0.33900       -0.58000
C          4.93700       -1.75200       -2.53500
C          4.56900       -3.22800       -2.31100
C          5.05100       -4.12600       -3.44300
C          6.54700       -3.96600       -3.68400
C          6.91400       -2.50900       -3.93800
C          6.44200       -1.60300       -2.80500
H          2.58400       -1.92200        2.10000
H          3.96900       -2.39800        1.08900
H          2.34900       -2.89200        0.62500
H          3.30700        0.03500        0.68700
H          1.70500       -0.52500        0.19800
H          4.38400       -1.35100       -3.39400
H          3.48200       -3.34000       -2.21000
H          5.00000       -3.57500       -1.36200
H          4.50200       -3.88200       -4.36000
H          4.82500       -5.17100       -3.20200
H          6.85000       -4.57900       -4.53900
H          7.10000       -4.33700       -2.81200
H          6.46700       -2.17700       -4.88200
H          8.00100       -2.41700       -4.05000
H          6.67200       -0.55800       -3.05100
H          7.01300       -1.83900       -1.89700
