18
3291-00-7.pdb
N          2.98900        0.03900       -1.43400
N          2.37600        0.08200       -0.17700
C          2.96200        0.87700        0.79200
C          2.50900        1.18700        2.02000
C          1.29500        0.64800        2.60700
C          0.91100        0.98900        3.84500
C          1.67800        1.92000        4.63800
C          2.81800        2.46400        4.19300
C          3.34700        2.13000        2.84500
O          4.40200        2.62400        2.46300
H          2.45600       -0.54900       -2.07900
H          3.89900       -0.42600       -1.35400
H          1.35300        0.15100       -0.16500
H          3.91700        1.28700        0.46300
H          0.70800       -0.06800        2.03900
H          0.01500        0.56300        4.28800
H          1.30300        2.16800        5.62700
H          3.40200        3.16200        4.78000
