30
3291-03-0.pdb
C          1.00800        0.51600       -0.50000
O          2.31500        0.12300       -0.09700
C          2.99900       -0.73300       -0.92100
C          2.70900       -0.84400       -2.28800
C          3.47000       -1.67700       -3.11700
C          4.55000       -2.38700       -2.58900
C          4.87400       -2.26300       -1.23500
O          5.91900       -2.94100       -0.65300
C          7.04500       -3.17700       -1.49400
C          4.08500       -1.45400       -0.38600
O          4.52500       -1.38200        0.91600
C          3.54000       -1.22500        1.92800
C          3.20200       -1.76800       -4.57900
O          4.10600       -2.04600       -5.36400
N          1.89300       -1.53400       -4.98500
N          1.57100       -1.65100       -6.35500
H          0.54800        1.05400        0.33400
H          0.38300       -0.35500       -0.72400
H          1.04800        1.20400       -1.35100
H          1.93000       -0.23500       -2.73100
H          5.12700       -3.03000       -3.24800
H          7.88800       -3.45100       -0.85300
H          7.32800       -2.27600       -2.05100
H          6.85400       -4.01300       -2.17200
H          3.97600       -1.57200        2.87100
H          2.64600       -1.82900        1.73600
H          3.29000       -0.16900        2.06600
H          1.13100       -1.55600       -4.31200
H          2.39500       -2.06700       -6.81500
H          1.52600       -0.70800       -6.74900
