39
32981-85-4.pdb
C          4.48100        1.37900       -3.16100
O          4.29800        0.19700       -2.37900
C          4.80500        0.26100       -1.11300
O          5.39400        1.23100       -0.65200
C          4.51900       -1.04100       -0.34700
O          4.77200       -0.96500        1.06300
C          5.23400       -2.27100       -0.98400
N          4.73300       -2.58500       -2.32500
C          3.54400       -3.25700       -2.51700
O          2.84000       -3.63800       -1.59000
C          3.12900       -3.49800       -3.93100
C          4.05100       -3.50800       -4.98800
C          3.62200       -3.78000       -6.29100
C          2.27800       -4.04900       -6.54500
C          1.35800       -4.04700       -5.49700
C          1.78000       -3.77400       -4.19600
C          6.76700       -2.30700       -0.99300
C          7.59400       -1.28600       -0.50100
C          8.98200       -1.45000       -0.42900
C          9.57500       -2.62500       -0.87500
C          8.78300       -3.63700       -1.40400
C          7.39500       -3.48200       -1.45600
H          4.01800        1.20900       -4.13800
H          5.54600        1.57400       -3.31200
H          3.98800        2.23400       -2.68800
H          3.43300       -1.17900       -0.41300
H          5.73200       -0.97800        1.21400
H          4.95400       -3.11800       -0.33900
H          5.12600       -2.06100       -3.09500
H          5.11000       -3.34400       -4.81600
H          4.34000       -3.79600       -7.10700
H          1.94900       -4.27200       -7.55700
H          0.30900       -4.26900       -5.69400
H          1.05700       -3.79200       -3.38200
H          7.20600       -0.34100       -0.13600
H          9.59600       -0.65600       -0.00900
H         10.65200       -2.75200       -0.80400
H          9.24100       -4.55700       -1.75800
H          6.79500       -4.30400       -1.84500
