27
3303-84-2.pdb
C          3.15100        1.53000       -0.05500
C          2.70000        0.07000        0.08800
C          3.12300       -0.53600        1.43900
C          1.16200        0.04600        0.02300
O          3.19100       -0.70800       -1.03600
C          4.53800       -0.88200       -1.13700
O          5.35700       -0.40800       -0.35400
N          4.87100       -1.65400       -2.19600
C          6.20800       -2.16900       -2.38900
C          6.20700       -3.68000       -2.48400
C          5.50500       -4.21800       -3.72700
O          4.95000       -3.36700       -4.47700
O          5.54700       -5.47600       -3.84200
H          2.74500        2.15200        0.74600
H          2.82600        1.93500       -1.02000
H          4.23900        1.63300       -0.03200
H          2.72000        0.04000        2.27600
H          4.20700       -0.56300        1.57400
H          2.78100       -1.57400        1.52600
H          0.72400        0.64600        0.82900
H          0.77100       -0.97400        0.10800
H          0.79900        0.44300       -0.93200
H          4.18200       -1.91400       -2.89600
H          6.83700       -1.87400       -1.54000
H          6.63100       -1.70100       -3.28500
H          5.72000       -4.11000       -1.59900
H          7.24300       -4.03800       -2.49600
