19
3306-62-5.pdb
N          2.39500        0.04300        0.22300
C          1.00600       -0.03400        0.01100
C          0.27000        1.16200        0.04100
C         -1.12800        1.16000        0.00600
C         -1.82300       -0.04400       -0.01800
C         -1.11800       -1.24600       -0.01200
C          0.28600       -1.24100        0.02400
S          1.11700       -2.80800       -0.03700
N          1.36200       -3.14300        1.57900
O          0.18700       -3.80300       -0.52900
O          2.41900       -2.61700       -0.63200
H          2.81200        0.90000       -0.13000
H          2.90100       -0.77400       -0.14000
H          0.78700        2.11800        0.08800
H         -1.67100        2.10200        0.01100
H         -2.91000       -0.04700       -0.03700
H         -1.67100       -2.18300       -0.03700
H          0.55300       -3.50600        2.07500
H          2.00400       -2.51400        2.05500
