34
33083-83-9.pdb
C          0.89500        0.06000       -0.01200
C          2.41400        0.05700       -0.01700
C          2.96000        0.47500       -1.37800
C          4.48800        0.47800       -1.39200
C          4.99800        0.90100       -2.76400
C          6.51800        0.92100       -2.83200
C          6.98300        1.35000       -4.21400
O          6.32800        1.11600       -5.22500
C          8.31400        2.07700       -4.28600
C          9.43300        1.20000       -3.74100
C         10.79100        1.89100       -3.79100
C         11.87200        0.97600       -3.23500
H          0.51800       -0.24100        0.97000
H          0.50000       -0.63700       -0.75800
H          0.50500        1.05800       -0.23600
H          2.77600       -0.94600        0.23700
H          2.78100        0.74200        0.75700
H          2.58900        1.47600       -1.63200
H          2.58700       -0.20900       -2.15000
H          4.86400       -0.52400       -1.14700
H          4.86600        1.16500       -0.62500
H          4.61000        1.89800       -3.00900
H          4.60700        0.21500       -3.52500
H          6.92900       -0.07300       -2.62600
H          6.92000        1.62500       -2.09700
H          8.22900        3.00400       -3.71200
H          8.50600        2.34200       -5.33300
H          9.47400        0.26500       -4.31400
H          9.21100        0.92200       -2.70400
H         10.76400        2.81800       -3.20700
H         11.03800        2.16000       -4.82400
H         11.66100        0.71000       -2.19400
H         12.84700        1.46900       -3.27100
H         11.93600        0.05000       -3.81600
