22
33105-81-6.pdb
C          2.17200        2.65100       -0.37300
C          2.23500        1.71100       -1.59500
C          0.80100        1.28800       -1.95900
C          2.81700        2.53300       -2.76600
C          3.13800        0.48100       -1.28700
N          3.27400       -0.39700       -2.52900
C          2.68500       -0.45500       -0.11300
O          2.43800       -1.62300       -0.55900
O          2.69000        0.01900        1.04500
H          1.69200        3.60300       -0.63100
H          3.17500        2.87900        0.00300
H          1.58800        2.22000        0.44500
H          0.17900        2.16300       -2.18200
H          0.32100        0.74800       -1.13600
H          0.77800        0.64200       -2.84400
H          2.24500        3.45600       -2.92400
H          2.79000        1.98500       -3.71300
H          3.85700        2.82000       -2.56900
H          4.16100        0.81200       -1.07100
H          2.40400       -0.95800       -2.54100
H          3.95100       -1.13200       -2.27900
H          3.48900        0.04000       -3.42000
