30
33130-03-9.pdb
C          0.94200       -0.27900       -0.23800
O          2.32900       -0.03800       -0.03700
C          3.03600       -1.01600        0.61800
C          2.66600       -2.36100        0.57500
C          3.45900       -3.33200        1.18100
C          4.65800       -2.99900        1.82900
C          5.38800       -4.13400        2.40300
C          5.23300       -4.56700        3.66400
C          6.00800       -5.77800        4.18600
O          6.79100       -6.34000        3.37200
O          5.75400       -6.06500        5.39000
C          5.06100       -1.65000        1.86200
O          6.19900       -1.15800        2.46200
C          7.36000       -1.97800        2.46200
C          4.22700       -0.65500        1.28200
O          4.71100        0.63700        1.35400
C          3.74600        1.66400        1.53900
H          0.49600        0.64700       -0.61400
H          0.44200       -0.53300        0.70300
H          0.77800       -1.05000       -0.99600
H          1.77900       -2.69700        0.05100
H          3.14600       -4.37700        1.13900
H          6.06000       -4.65800        1.72900
H          4.55900       -4.07500        4.35800
H          8.23000       -1.31500        2.41100
H          7.42400       -2.64100        1.59300
H          7.42900       -2.53200        3.40200
H          4.23300        2.49000        2.06700
H          2.89200        1.34400        2.14700
H          3.42000        2.05200        0.57000
