16
3320-87-4.pdb
O          1.31800        0.25700       -0.49700
N          2.34500        0.01400        0.15000
O          2.78100        0.72100        1.06900
C          3.10100       -1.19500       -0.19900
C          2.64000       -2.02500       -1.22700
C          3.35900       -3.17300       -1.55000
C          4.53100       -3.48500       -0.85400
C          5.01500       -2.65100        0.17100
C          4.27700       -1.50600        0.50100
N          6.16400       -2.92600        0.94000
C          7.04900       -3.42200        0.35000
O          7.92300       -3.93500       -0.24400
H          1.72700       -1.79700       -1.77500
H          3.00700       -3.83100       -2.34200
H          5.05800       -4.40000       -1.12200
H          4.63000       -0.86800        1.30900
