16
3320-86-3.pdb
O          2.11300       -1.17000        0.14000
N          2.26900        0.04100       -0.06900
O          1.75700        0.68600       -0.99500
C          3.05900        0.77400        0.89900
C          2.61500        0.75400        2.23200
C          3.36900        1.39600        3.20900
C          4.55500        2.03400        2.85400
C          4.98300        2.04800        1.52000
C          4.23400        1.43300        0.49500
N          4.66900        1.39300       -0.85200
C          5.26700        2.33500       -1.21700
O          5.88700        3.27400       -1.55500
H          1.69900        0.23600        2.51000
H          3.04500        1.38700        4.24800
H          5.16200        2.51700        3.61800
H          5.93000        2.54000        1.30000
