29
33228-44-3.pdb
C          4.45600       -1.39700       -2.54600
C          4.09700       -0.72500       -1.23000
C          4.77100       -1.41200       -0.04200
C          4.40600       -0.71000        1.27000
C          5.04800       -1.35400        2.50500
C          6.55700       -1.31900        2.50300
C          7.24700       -0.10200        2.44000
C          8.64300       -0.07800        2.39700
C          9.38100       -1.25900        2.47600
N         10.76900       -1.23600        2.29500
C          8.69400       -2.47400        2.50000
C          7.29600       -2.50700        2.53700
H          3.96400       -0.88400       -3.37800
H          4.13500       -2.44300       -2.55300
H          5.53600       -1.36700       -2.72000
H          3.00800       -0.74200       -1.10200
H          4.40200        0.32700       -1.27100
H          5.85600       -1.39900       -0.19100
H          4.46200       -2.46300        0.00400
H          3.31600       -0.73500        1.39700
H          4.68500        0.34900        1.20700
H          4.69200       -2.38700        2.59800
H          4.69800       -0.83100        3.40500
H          6.70200        0.83800        2.39600
H          9.15000        0.87800        2.29800
H         11.20300       -0.36900        2.59500
H         11.24100       -2.05300        2.66800
H          9.24100       -3.41200        2.48600
H          6.79100       -3.47000        2.56800
