34
33233-67-9.pdb
C          3.09000       -1.35600        0.70900
C          2.67100       -0.10200       -0.06900
C          3.09900       -0.16500       -1.54400
C          1.13800       -0.00700       -0.02400
O          3.16900        1.10600        0.57500
C          4.51200        1.27600        0.67600
O          5.35900        0.50000        0.25400
N          4.81500        2.43500        1.32400
C          6.19700        2.76900        1.54900
C          6.38300        4.06800        2.26900
C          6.44700        4.10300        3.66700
C          6.69500        5.30600        4.33300
C          6.87500        6.50200        3.62100
C          6.77600        6.46200        2.22100
C          6.52800        5.26200        1.55200
C          7.18000        7.80000        4.34300
O          7.25900        7.75300        5.61100
O          7.33800        8.83800        3.62500
H          2.64900       -2.25900        0.27500
H          2.77300       -1.28200        1.75600
H          4.17300       -1.49900        0.72400
H          2.66200       -1.03300       -2.04700
H          4.18300       -0.23400       -1.66500
H          2.78600        0.74000       -2.07800
H          0.67100       -0.88300       -0.48800
H          0.78100        0.88900       -0.54400
H          0.77900        0.06600        1.00900
H          4.07000        3.03000        1.66600
H          6.70500        2.79700        0.57600
H          6.66500        1.95200        2.11200
H          6.33200        3.19300        4.25100
H          6.76700        5.32200        5.42000
H          6.91200        7.38200        1.65500
H          6.47600        5.26500        0.46600
