16
332360-05-1.pdb
O          5.08400       -0.14000        1.35800
C          4.46800       -1.24500        0.62500
C          2.94100       -1.18200        0.62500
O          2.46300        0.13600        0.23200
S          2.33800       -1.67600        2.30500
O          0.88700       -1.82400        2.14500
O          3.01300       -2.93800        2.61700
O          2.70000       -0.56100        3.17700
S          5.11200       -1.35500       -1.09000
O          4.78900       -0.08600       -1.73800
O          6.55200       -1.51700       -0.86200
O          4.47200       -2.53100       -1.68400
H          5.97600       -0.10400        0.95700
H          4.82500       -2.17000        1.09100
H          2.50600       -1.92200       -0.05600
H          2.80300        0.69400        0.95900
