39
3326-34-9.pdb
N          1.03500        0.24500       -0.02700
C          2.42200        0.05600       -0.03400
C          3.11900        0.03100       -1.25800
C          4.51700       -0.02800       -1.29900
C          5.20700       -0.02100       -0.09900
C          4.52100        0.05800        1.09400
C          3.14100        0.12100        1.16100
C          5.47900        0.06700        2.18800
O          5.21800        0.13900        3.37200
O          6.72300       -0.02300        1.63300
C          6.67600       -0.08000        0.18200
C          7.41200        1.12800       -0.35900
C          7.07400        2.44000        0.03500
C          7.72600        3.54600       -0.51000
C          8.73000        3.34700       -1.44700
O          9.39100        4.39900       -2.00900
C          9.08900        2.06400       -1.84300
C          8.43000        0.95600       -1.30100
O          8.84000       -0.27000       -1.76700
C          8.29200       -1.40700       -1.22400
C          8.80500       -2.61700       -1.70700
C          8.29900       -3.82000       -1.22500
O          8.75500       -5.02100       -1.68000
C          7.30400       -3.83500       -0.26000
C          6.80000       -2.63000        0.22600
C          7.27800       -1.39600       -0.26300
H          0.56300       -0.11500       -0.85100
H          0.58000       -0.04700        0.83300
H          2.56800        0.05700       -2.19600
H          5.03900       -0.07000       -2.25200
H          2.64500        0.21400        2.12200
H          6.28700        2.61100        0.76800
H          7.43400        4.54300       -0.19400
H          9.04700        5.22400       -1.62800
H          9.87900        1.92700       -2.57500
H          9.58700       -2.60000       -2.45900
H          9.45800       -4.86300       -2.33200
H          6.91600       -4.78000        0.11000
H          6.01600       -2.66400        0.97900
