18
3343-59-7.pdb
O          0.99100       -0.04200       -0.19800
N          2.36100       -0.14000        0.02300
C          3.17800       -0.22300       -1.08700
C          4.51000       -0.04800       -1.17700
C          5.33000        0.17600        0.01100
C          6.63900        0.45000       -0.09300
C          7.28500        0.51800       -1.42400
O          8.46600        0.82600       -1.55700
C          6.46100        0.16700       -2.62200
C          5.15800       -0.11200       -2.48400
O          7.08600        0.14600       -3.85400
H          0.60900       -0.55000        0.54300
H          2.70700        0.52800        0.71400
H          2.59500       -0.44600       -1.98000
H          4.88000        0.09300        0.99300
H          7.27200        0.61500        0.76900
H          4.57000       -0.36600       -3.36000
H          8.01300        0.40700       -3.66900
