27
33499-42-2.pdb
C          2.13900       -1.62800        1.00600
C          2.41000       -0.44000        0.10500
O          3.01700       -0.92300       -1.10300
C          4.36000       -1.10500       -0.98900
O          5.08300       -0.54500       -0.19400
C          4.81900       -2.18700       -1.90800
C          4.15900       -2.37600       -3.13100
C          4.64200       -3.30200       -4.05900
C          5.78300       -4.05700       -3.77700
C          6.34000       -5.02300       -4.78100
C          6.41900       -3.89700       -2.53900
C          5.94500       -2.97400       -1.59000
C          6.66100       -2.86000       -0.27000
H          1.65100       -1.30900        1.93000
H          3.07200       -2.14100        1.26200
H          1.50000       -2.36200        0.50000
H          3.06000        0.28200        0.61800
H          1.47000        0.06200       -0.14100
H          3.28700       -1.77900       -3.38500
H          4.13000       -3.41200       -5.01200
H          5.75300       -5.02700       -5.70600
H          6.33500       -6.04000       -4.37400
H          7.36700       -4.74600       -5.04000
H          7.30300       -4.49300       -2.31700
H          7.47200       -3.59300       -0.18700
H          5.96600       -3.05300        0.55400
H          7.11400       -1.87200       -0.15400
