18
33543-78-1.pdb
C          2.11000        2.01900        0.30800
C          2.49800        0.55500        0.19500
O          3.14200        0.17000        1.41200
C          4.47600        0.43700        1.47600
O          5.19300        0.68700        0.51300
C          4.91000        0.50900        2.85100
N          6.17600        0.89900        3.22000
C          6.21300        0.99100        4.58200
C          4.96000        0.60600        4.99800
N          4.16300        0.30300        3.92500
H          1.56600        2.35500       -0.57700
H          2.99800        2.64700        0.43600
H          1.48500        2.18000        1.19400
H          3.12700        0.36900       -0.68200
H          1.59700       -0.06100        0.08900
H          6.91500        1.12800        2.56800
H          7.09300        1.31800        5.11700
H          4.58500        0.54800        6.01100
