14
33577-16-1.pdb
C          1.14000       -0.24500       -0.02500
S          2.89000        0.18700        0.10300
C          3.50500       -0.77000       -1.31200
S          5.30100       -0.61300       -1.56800
C          5.81600       -1.51200       -0.08300
O          5.66200       -1.46500       -2.75000
H          0.60400        0.16900        0.83300
H          1.01000       -1.33100       -0.02200
H          0.71200        0.17600       -0.93900
H          3.02700       -0.39900       -2.22300
H          3.26100       -1.83000       -1.19600
H          5.56800       -0.93400        0.81000
H          6.90000       -1.64700       -0.12000
H          5.33300       -2.49100       -0.04700
