25
3360-41-6.pdb
O          0.81400       -0.03900        0.14600
C          2.23000       -0.02000        0.05200
C          2.79700       -1.25800        0.73600
C          4.32500       -1.28400        0.66100
C          4.90400       -2.52700        1.34100
C          6.41400       -2.55200        1.31500
C          7.15000       -1.95400        2.34800
C          8.54600       -2.00200        2.34600
C          9.22100       -2.64100        1.30900
C          8.50200       -3.22300        0.26700
C          7.10500       -3.17500        0.26700
H          0.48800        0.76400       -0.29900
H          2.59700        0.89200        0.53500
H          2.50800        0.00100       -1.00600
H          2.37500       -2.15700        0.26900
H          2.46500       -1.28000        1.78100
H          4.72600       -0.38000        1.13500
H          4.64000       -1.25600       -0.39000
H          4.51900       -3.43400        0.85800
H          4.56500       -2.57600        2.38300
H          6.63800       -1.45600        3.16800
H          9.10500       -1.54600        3.15800
H         10.30700       -2.68800        1.31400
H          9.02900       -3.72200       -0.54300
H          6.56000       -3.63900       -0.55200
