25
336185-29-6.pdb
C          3.41200        3.53200       -0.43900
C          2.40700        2.38300       -0.67500
C          1.50900        2.27400        0.57100
C          1.50500        2.80700       -1.86000
C          3.17900        1.06500       -1.03400
N          2.23600       -0.05800       -1.31600
C          4.23800        0.56100       -0.05300
C          3.59800        0.00500        1.20800
O          2.56800       -0.70300        0.96100
O          4.12200        0.34500        2.29000
H          2.89300        4.47700       -0.24100
H          4.05100        3.68400       -1.31600
H          4.05700        3.33900        0.42400
H          0.94800        3.20400        0.72900
H          2.08900        2.10800        1.48200
H          0.77400        1.47000        0.47300
H          1.04800        3.78700       -1.67700
H          0.68400        2.10200       -2.02500
H          2.08100        2.88100       -2.78900
H          3.68600        1.23500       -1.99300
H          1.94300       -0.42200       -0.36300
H          2.71700       -0.87400       -1.70100
H          1.39100        0.15300       -1.84200
H          4.96900        1.34000        0.18600
H          4.80600       -0.26100       -0.51200
