12
336100-46-0.pdb
O          1.30900        0.29200       -0.57000
C          2.37500        0.06100        0.08400
O          2.86400        0.78400        1.00800
C          3.12000       -1.17400       -0.26500
C          2.78000       -2.10100       -1.23100
N          3.73500       -3.07900       -1.22900
C          4.67800       -2.80300       -0.27100
C          4.32400       -1.62000        0.34200
H          1.93600       -2.12200       -1.90700
H          3.74000       -3.88100       -1.84100
H          5.51500       -3.46600       -0.10800
H          4.85400       -1.11500        1.14000
