25
33632-27-8.pdb
C          1.13300        0.50300       -0.18500
C          2.47700       -0.08000        0.14300
O          3.01900        0.22700        1.21000
N          3.07900       -0.95300       -0.73800
C          4.35000       -1.58400       -0.34800
C          4.85700       -2.38600       -1.54500
C          3.68400       -2.32400       -2.47200
C          3.56900       -2.97900       -3.69400
C          2.41800       -2.74600       -4.45300
C          1.41800       -1.87100       -3.99100
C          1.55700       -1.22500       -2.75400
C          2.69200       -1.45800       -1.99300
N          2.25600       -3.41300       -5.75200
O          3.15900       -4.17300       -6.12600
O          1.22400       -3.17600       -6.39600
H          0.81900        1.16300        0.63100
H          0.38800       -0.29200       -0.26700
H          1.18800        1.10700       -1.09300
H          4.15100       -2.23900        0.51000
H          5.07100       -0.82300       -0.03000
H          5.11500       -3.41100       -1.26500
H          5.72500       -1.89900       -2.00100
H          4.35900       -3.64200       -4.03700
H          0.52500       -1.68000       -4.58500
H          0.76100       -0.56100       -2.44600
