30
33693-84-4.pdb
C          3.09300       -1.55300        0.69800
C          2.75800       -0.16300        0.13600
C          3.23400        0.00700       -1.30900
C          1.22900       -0.00100        0.17000
O          3.28800        0.89300        0.98500
C          4.62300        0.94100        1.21700
O          5.47100        0.20400        0.74900
C          4.95600        1.92200        2.28100
C          4.02800        2.19600        3.30000
C          4.42500        2.88300        4.44900
C          5.74900        3.29400        4.59900
C          6.66500        3.08600        3.56900
C          6.26900        2.41700        2.39900
C          7.19500        2.39400        1.24200
O          8.47300        2.10200        1.56900
O          6.84300        2.71000        0.11900
H          2.59800       -2.34400        0.12500
H          2.77900       -1.63300        1.74600
H          4.16500       -1.76600        0.67900
H          2.79700       -0.75400       -1.96400
H          4.32200       -0.06400       -1.39800
H          2.95700        0.99600       -1.69300
H          0.73300       -0.75900       -0.44600
H          0.92800        0.98800       -0.19100
H          0.84800       -0.08900        1.19400
H          2.99900        1.84900        3.22200
H          3.70300        3.08200        5.23900
H          6.05900        3.80100        5.51100
H          7.67500        3.47800        3.67600
H          8.59900        1.75000        2.46900
