34
33693-48-0.pdb
C          1.00300       -0.27600        0.25500
O          2.34900        0.07000       -0.05900
C          3.01600        0.85900        0.84700
C          2.61300        1.04300        2.17500
C          3.34300        1.86400        3.05200
C          2.92200        2.06600        4.48300
O          1.50800        2.04200        4.62600
C          4.53100        2.44100        2.59700
C          4.95500        2.24900        1.28300
C          4.18600        1.49200        0.39000
O          4.52700        1.32800       -0.93300
C          5.32500        2.38000       -1.48700
C          5.22800        2.43000       -2.99400
C          4.07000        2.01600       -3.66600
C          3.97500        2.14000       -5.05300
C          5.02800        2.69000       -5.78100
C          6.17800        3.12100       -5.12300
C          6.27600        2.99700       -3.73600
H          0.61100       -0.88500       -0.56600
H          0.38300        0.62100        0.33600
H          0.93700       -0.88200        1.16400
H          1.72800        0.54600        2.56700
H          3.26600        3.04100        4.84600
H          3.35600        1.28600        5.11500
H          1.15000        2.66200        3.96700
H          5.14400        3.04500        3.26500
H          5.89500        2.70000        0.98300
H          6.37000        2.20500       -1.20300
H          4.99400        3.36000       -1.12000
H          3.23500        1.59700       -3.10800
H          3.07400        1.81000       -5.56300
H          4.95000        2.78800       -6.85900
H          6.99600        3.56000       -5.68800
H          7.17500        3.35200       -3.23700
