29
3377-71-7.pdb
C          1.14700        0.09200       -0.08800
N          0.53700        1.41900       -0.05100
C         -0.25200        1.87700        0.97600
C         -0.53600        3.20200        0.73500
C          0.10700        3.56600       -0.48000
C          0.20200        4.77100       -1.20500
C          0.93400        4.80100       -2.39600
C          1.54400        3.64900       -2.88000
C          1.45700        2.43900       -2.18400
C          0.74900        2.42700       -0.97100
C          0.29500       -0.99500       -0.70200
C         -0.98400       -0.78000       -1.23500
C         -1.75100       -1.84900       -1.70700
C         -1.24200       -3.14400       -1.67400
C          0.04300       -3.37200       -1.18900
C          0.80500       -2.30600       -0.70800
H          1.36800       -0.17300        0.95500
H          2.10200        0.17500       -0.61800
H         -0.53800        1.23000        1.79400
H         -1.13000        3.84500        1.36800
H         -0.28000        5.67200       -0.83600
H          1.02400        5.73400       -2.94600
H          2.10200        3.68700       -3.81300
H          1.93000        1.54500       -2.57700
H         -1.41600        0.21900       -1.27900
H         -2.75100       -1.66600       -2.09200
H         -1.84700       -3.97500       -2.02600
H          0.44700       -4.38100       -1.17300
H          1.80300       -2.50800       -0.32200
