27
3382-18-1.pdb
C          3.34800        1.11100        0.10200
O          2.50800       -0.01400       -0.16000
C          3.12600       -1.23500       -0.14700
C          4.14800       -1.50900        0.78300
C          4.84900       -2.71600        0.73500
C          6.00200       -3.02300        1.64400
C          7.00000       -3.90900        0.89600
N          6.37100       -5.12100        0.32900
C          5.20400       -4.95600       -0.19900
C          4.45300       -3.69100       -0.17900
C          3.38400       -3.47600       -1.04100
C          2.72300       -2.24000       -1.05000
O          1.74900       -2.19600       -2.00900
C          0.98900       -1.01200       -2.18200
H          3.13800        1.87500       -0.65200
H          4.42300        0.89900        0.04700
H          3.10100        1.51800        1.08600
H          4.41700       -0.78000        1.54100
H          5.62800       -3.53600        2.53800
H          6.50100       -2.10000        1.96000
H          7.79700       -4.21500        1.58200
H          7.47900       -3.34700        0.08300
H          4.72100       -5.82000       -0.69000
H          3.07500       -4.25100       -1.73800
H          0.35400       -1.15900       -3.06300
H          1.62200       -0.14600       -2.39400
H          0.32900       -0.84400       -1.32600
