26
3385-34-0.pdb
C          2.89500       -1.16900        1.30200
C          4.33300       -0.81900        0.99000
O          4.64900       -1.28200       -0.33200
C          4.52800       -0.37700       -1.33500
O          4.12600        0.76900       -1.19500
C          4.96000       -0.97300       -2.64500
C          4.33500       -0.58500       -3.78300
C          3.15600        0.33100       -3.94300
O          4.77300       -1.04900       -5.05800
C          5.85400       -1.85200       -5.20800
O          6.27700       -2.20900       -6.30200
C          6.50500       -2.30500       -3.97400
C          6.08500       -1.91300       -2.76000
C          6.79500       -2.44600       -1.54500
H          2.62600       -0.85900        2.31500
H          2.73800       -2.24800        1.20700
H          2.21700       -0.68600        0.59100
H          5.00400       -1.33700        1.68500
H          4.52200        0.25500        1.10600
H          2.70000        0.66600       -3.01200
H          2.37100       -0.18600       -4.50800
H          3.45200        1.21600       -4.51700
H          7.33900       -2.98000       -4.11600
H          7.66100       -3.06300       -1.81600
H          6.13400       -3.09200       -0.95800
H          7.17100       -1.63300       -0.91600
