27
33878-99-8.pdb
C          1.47900        0.00500       -1.50300
C          2.17000       -0.02600       -0.13100
C          3.66200       -0.41000       -0.29500
C          3.88000       -1.89700       -0.53200
C          3.21800       -2.71000        0.55300
O          3.63700       -3.81200        0.89500
C          1.95600       -2.19700        1.14100
C          1.44900       -0.99800        0.80000
C          0.08900       -0.57400        1.30800
C          0.08900        0.83600        1.88900
C          0.73600        1.85900        0.96600
C          2.09500        1.38300        0.50000
O          3.06600        2.14100        0.54900
H          1.47800       -0.98200       -1.97800
H          1.97800        0.70800       -2.17800
H          0.43400        0.32700       -1.43200
H          4.22100       -0.12800        0.61000
H          4.11600        0.15900       -1.11600
H          4.95400       -2.11000       -0.51800
H          3.48100       -2.21300       -1.50000
H          1.44600       -2.88600        1.80700
H         -0.27700       -1.26700        2.07700
H         -0.62800       -0.63000        0.48000
H          0.61500        0.83300        2.85100
H         -0.94400        1.14300        2.09300
H          0.85700        2.80800        1.50000
H          0.11400        2.05500        0.08700
