15
33898-90-7.pdb
O          1.23600       -0.00700       -0.77700
C          2.29800        0.06400       -0.15900
C          2.85800        1.40300        0.29000
C          1.95200        2.52700       -0.18500
N          1.20000        3.46000       -0.57900
C          3.05100       -1.14700        0.15600
S          4.47800       -1.13800        1.10000
C          4.65300       -2.83400        0.98000
C          3.65200       -3.40500        0.22900
C          2.72700       -2.43200       -0.24300
H          3.85100        1.55200       -0.14500
H          2.91400        1.43600        1.38200
H          5.48200       -3.33300        1.46400
H          3.58200       -4.46800        0.03000
H          1.85600       -2.65800       -0.85200
