15
33893-89-9.pdb
N          0.68100        0.34000       -0.89300
N          0.36200       -0.93400       -0.57200
N         -0.48700       -0.93200        0.47500
N         -0.72600        0.34600        0.86000
C         -0.00000        1.11100        0.00300
C          0.05900        2.63900        0.02200
C          0.83300        3.28300       -0.94500
C          0.89900        4.67500       -0.94800
C          0.19700        5.38900        0.01500
C         -0.54700        4.67900        0.94300
N         -0.63600        3.33500        0.96900
H          1.37800        2.70800       -1.68900
H          1.49400        5.18900       -1.69500
H          0.22900        6.47100        0.04400
H         -1.11200        5.18900        1.71800
