25
33892-75-0.pdb
C          1.00000        0.09700        0.24200
O          2.39600        0.01400        0.02300
C          2.95300        0.64400       -1.05800
C          4.09900       -0.03700       -1.50800
C          4.89200        0.46700       -2.53300
C          4.57300        1.69500       -3.09200
C          3.44900        2.40200       -2.63800
C          3.24300        3.77500       -3.18200
O          3.94400        4.20500       -4.09500
C          2.21400        4.64000       -2.50700
C          1.00300        3.80100       -2.17200
C          1.37700        2.66700       -1.22300
C          2.58600        1.86900       -1.64800
H          0.71500       -0.72500        0.90600
H          0.43200       -0.02600       -0.68500
H          0.74800        1.02400        0.76400
H          4.38000       -0.97900       -1.03800
H          5.77000       -0.07800       -2.86800
H          5.21700        2.11700       -3.86100
H          1.92300        5.44400       -3.19200
H          2.65700        5.08900       -1.61300
H          0.58000        3.38000       -3.09500
H          0.22300        4.42000       -1.71600
H          0.49200        2.02900       -1.19800
H          1.55500        3.06900       -0.21900
