20
33901-44-9.pdb
C          2.47200       -0.03000       -0.01100
C          0.97300        0.02300       -0.01600
C          0.29300        1.24600       -0.02200
C         -1.10700        1.28500       -0.03300
C         -1.84100        0.09900       -0.04200
O         -3.20700        0.01000       -0.02300
C         -3.90900        1.07500       -0.66900
C         -5.40600        0.82300       -0.59600
N         -6.64800        0.61500       -0.53600
C         -1.16600       -1.12100       -0.01200
C          0.23100       -1.16200       -0.00900
H          2.91000        0.97400        0.00700
H          2.83300       -0.53700       -0.91200
H          2.83000       -0.56700        0.87300
H          0.84900        2.18100       -0.00700
H         -1.58300        2.25900       -0.00500
H         -3.60900        1.14200       -1.72100
H         -3.72200        2.02900       -0.16400
H         -1.73000       -2.05200        0.00200
H          0.73500       -2.12600        0.00400
