22
33904-04-0.pdb
C          0.90800       -0.37700       -0.33200
O          2.27400       -0.06200       -0.08900
C          2.98700       -0.93600        0.68700
C          2.64900       -2.28800        0.81100
C          3.47600       -3.17900        1.50700
C          4.66900       -2.74100        2.09900
C          4.99200       -1.38500        1.97700
C          4.16200       -0.47600        1.30200
O          4.65600        0.80400        1.28600
C          3.70000        1.85800        1.25800
N          5.60900       -3.57600        2.73600
C          5.19300       -4.51500        3.30000
S          4.68900       -5.81800        4.06900
H          0.47300        0.44600       -0.90700
H          0.36000       -0.45900        0.61200
H          0.79900       -1.28300       -0.93500
H          1.76400       -2.70200        0.33800
H          3.18300       -4.22500        1.54000
H          5.92200       -1.02300        2.41300
H          4.20500        2.77100        1.59100
H          2.86400        1.67700        1.94300
H          3.35200        2.04300        0.23800
