44
3392-12-9.pdb
C          1.02300       -0.10000        0.34800
C          2.53800        0.00700        0.13700
C          3.24200       -0.54100        1.38400
C          2.95900       -0.74400       -1.13800
N          2.26400       -0.24000       -2.32500
C          1.54800       -1.07300       -3.13800
O          1.32700       -2.24600       -2.88400
O          1.09200       -0.39700       -4.22600
C          0.25100       -1.08600       -5.19500
C         -1.06100       -1.57700       -4.56300
C         -0.10400       -0.04300       -6.27000
C          1.01000       -2.23000       -5.88100
C          4.47400       -0.68000       -1.38700
O          5.06500        0.18900       -2.01000
O          5.05800       -1.79700       -0.84700
N          5.94400       -2.41000       -1.73000
C          7.06400       -3.03500       -1.29100
O          7.53300       -3.05100       -0.16400
C          7.63400       -3.79600       -2.45900
C          6.54000       -3.74900       -3.51700
C          5.50000       -2.84400       -2.93800
O          4.42000       -2.62000       -3.46400
H          0.72400        0.39900        1.27600
H          0.70400       -1.14600        0.41100
H          0.46800        0.37400       -0.47000
H          2.79900        1.06700        0.03400
H          3.03700       -1.60900        1.52000
H          2.89900       -0.01600        2.28200
H          4.32600       -0.40500        1.32700
H          2.70200       -1.80700       -1.02500
H          2.50300        0.66800       -2.70500
H         -1.64900       -0.73500       -4.18100
H         -0.89600       -2.24700       -3.71600
H         -1.67300       -2.11800       -5.29300
H         -0.61100        0.82300       -5.82900
H         -0.75800       -0.46700       -7.04100
H          0.79800        0.34100       -6.76000
H          1.29500       -3.01800       -5.17900
H          1.93700       -1.86100       -6.33300
H          0.40200       -2.69400       -6.66500
H          7.84900       -4.83000       -2.17000
H          8.55100       -3.31200       -2.81000
H          6.09200       -4.73700       -3.66700
H          6.90000       -3.35500       -4.47000
