20
33963-55-2.pdb
C          1.23200       -0.08100       -0.51500
S          2.89000        0.20700        0.05200
O          3.83200        0.40100       -1.03400
O          2.74000        1.31100        0.99900
C          3.36600       -1.21300        1.03700
C          3.79200       -0.92400        2.35200
C          4.04500       -1.94200        3.27000
C          3.88600       -3.26400        2.88500
C          3.49600       -3.56100        1.57900
C          3.23000       -2.55200        0.62300
C          2.82700       -2.99900       -0.76200
O          2.95100       -2.17500       -1.70900
O          2.36400       -4.17700       -0.87000
H          0.93100        0.78400       -1.11200
H          0.58700       -0.14500        0.36700
H          1.11800       -0.97800       -1.10800
H          3.91100        0.10700        2.67900
H          4.35000       -1.69800        4.28300
H          4.06200       -4.07000        3.59000
H          3.38600       -4.60600        1.28400
