27
34004-14-3.pdb
C          1.20600       -0.65700       -0.26700
O          2.32800        0.15900        0.04900
C          2.85700       -0.13700        1.34700
O          3.38800       -1.46600        1.41200
C          4.44000       -1.68600        0.45200
C          4.81700       -3.17100        0.49300
O          5.84900       -3.47500       -0.43500
C          5.61800       -0.76100        0.77900
O          6.15100       -1.06100        2.08400
C          5.15700        0.70500        0.76100
O          6.24400        1.54800        1.15900
C          3.94700        0.90300        1.69200
O          3.42800        2.23600        1.59000
H          0.87500       -0.40300       -1.27700
H          0.38500       -0.47100        0.43100
H          1.47700       -1.71800       -0.25500
H          2.04700       -0.04800        2.08100
H          4.07700       -1.46300       -0.55900
H          5.12300       -3.49000        1.49600
H          3.94100       -3.77500        0.23400
H          6.69500       -3.22600       -0.02200
H          6.44300       -0.89200        0.06900
H          5.40400       -1.33300        2.65300
H          4.89400        1.00600       -0.26000
H          6.65900        1.11300        1.93300
H          4.26900        0.77200        2.73100
H          3.17200        2.36300        0.65700
