18
3400-45-1.pdb
O          1.17000       -0.37800       -0.21500
C          2.48400       -0.06200       -0.13200
O          3.00800        0.73000       -0.89800
C          3.18300       -0.76300        1.01400
C          4.66400       -0.40600        1.12300
C          5.30300       -1.57500        1.86700
C          4.32400       -2.74100        1.76000
C          3.22300       -2.27500        0.81900
H          0.86700       -0.99900        0.47400
H          2.67700       -0.49800        1.95100
H          4.81800        0.54300        1.64800
H          5.12700       -0.30600        0.13400
H          5.47300       -1.32100        2.92000
H          6.27600       -1.82700        1.43200
H          3.90400       -2.96200        2.74900
H          4.80700       -3.65300        1.39700
H          2.26500       -2.75300        1.04900
H          3.47600       -2.52800       -0.21800
