17
34047-39-7.pdb
C          1.10900        0.06200        0.11200
S          2.90800       -0.13800        0.04900
C          3.39700        1.53400        0.59500
C          4.91900        1.63600        0.62800
C          5.37800        3.01100        1.07600
C          6.86500        3.24400        1.15300
O          4.58700        3.90900        1.36400
H          0.63400       -0.87400       -0.19400
H          0.78700        0.85200       -0.57100
H          0.78400        0.29700        1.12900
H          2.98000        1.72000        1.59000
H          2.97900        2.27100       -0.09800
H          5.33800        1.45600       -0.36900
H          5.33800        0.90500        1.32800
H          7.41200        2.34300        0.86100
H          7.13600        3.50000        2.17900
H          7.14000        4.05500        0.47400
