31
3406-02-8.pdb
O          1.01800        0.14700       -0.00600
S          2.46500        0.13600       -0.03300
O          3.23800        1.18200        0.61000
C          3.04400       -1.42800        0.49100
S          2.49700       -1.85300        2.09900
O          3.06600       -3.16000        2.39300
O          2.75000       -0.75100        3.00500
C          0.74200       -2.11800        2.01300
C          0.24700       -3.14300        1.20000
C         -1.12400       -3.40200        1.17800
C         -1.98900       -2.65300        1.97500
C         -1.48900       -1.63600        2.79100
C         -0.12100       -1.36400        2.81300
C          2.92000        0.18100       -1.76200
C          2.01000       -0.27800       -2.72000
C          2.31600       -0.14900       -4.07500
C          3.51800        0.44100       -4.46800
C          4.42300        0.89900       -3.50700
C          4.12500        0.77400       -2.14900
H          4.13800       -1.41000        0.50400
H          2.70500       -2.19900       -0.20500
H          0.91300       -3.76200        0.60400
H         -1.51900       -4.20000        0.55400
H         -3.05600       -2.86800        1.97000
H         -2.16800       -1.06100        3.41800
H          0.25800       -0.57600        3.46200
H          1.05300       -0.70400       -2.42900
H          1.60600       -0.48300       -4.82900
H          3.74200        0.56500       -5.52500
H          5.34700        1.37900       -3.82100
H          4.82200        1.16800       -1.41200
