19
3414-94-6.pdb
S          2.81200        2.44100        0.80900
C          3.41000        0.92400        0.49500
N          2.61700       -0.09700        0.00800
N          3.47100       -1.09300       -0.47600
C          4.69500       -0.71000        0.03900
N          4.70400        0.47200        0.60800
C          5.88400       -1.57500       -0.01700
C          6.00500       -2.51100       -1.04900
C          7.15300       -3.29900       -1.13300
C          8.16000       -3.16800       -0.17500
C          8.02200       -2.25600        0.87200
C          6.88500       -1.45200        0.95100
H          1.75300        0.12000       -0.47500
H          3.20200       -2.04700       -0.22800
H          5.23200       -2.61100       -1.80500
H          7.26600       -4.00400       -1.95100
H          9.05600       -3.77800       -0.24700
H          8.80400       -2.16600        1.62100
H          6.78000       -0.74000        1.76600
