19
3420-02-8.pdb
C          1.02800        0.08200        0.10700
C          2.52900        0.06700        0.08900
C          3.22900       -1.14400        0.07000
C          4.63000       -1.17000        0.03500
C          5.34200        0.04300        0.01300
C          6.72300        0.37900       -0.04100
C          6.82100        1.75200       -0.04700
N          5.55100        2.26100        0.01400
C          4.62800        1.23900        0.04200
C          3.22900        1.28500        0.08500
H          0.61500       -0.93200        0.07200
H          0.64700        0.62700       -0.76300
H          0.66500        0.56300        1.02100
H          2.69000       -2.08900        0.07800
H          5.15800       -2.11900        0.01700
H          7.55400       -0.31300       -0.07900
H          7.68000        2.40700       -0.08800
H          5.31600        3.24400        0.02600
H          2.70000        2.23300        0.10600
