29
3422-01-3.pdb
C          3.11400        0.88600        1.21800
C          2.61100       -0.04800        0.10300
C          2.90500       -1.52900        0.39600
C          1.08500        0.11100        0.01900
O          3.15000        0.36600       -1.19000
C          4.50600        0.28500       -1.34600
O          5.25700       -0.14500       -0.48300
N          4.89300        0.79700       -2.56200
C          6.23600        0.88700       -2.99300
C          7.27200        0.15600       -2.39900
C          8.60000        0.33500       -2.78000
C          8.91200        1.24000       -3.78400
C          7.88700        1.94100       -4.42400
C          6.55600        1.76000       -4.03800
H          2.66700        0.63100        2.18400
H          2.86800        1.92800        0.98300
H          4.19900        0.85200        1.34500
H          2.44000       -1.84800        1.33400
H          3.97200       -1.74900        0.48300
H          2.52900       -2.16300       -0.41400
H          0.60900       -0.15600        0.97000
H          0.66300       -0.52700       -0.76500
H          0.80600        1.14100       -0.22700
H          4.17300        1.26400       -3.08800
H          7.07800       -0.58300       -1.62100
H          9.38100       -0.23000       -2.27800
H          9.94900        1.39400       -4.06800
H          8.13900        2.64800       -5.21300
H          5.78400        2.33800       -4.54000
