20
34231-78-2.pdb
C          1.04500        0.19500       -0.17000
C          2.51100       -0.12000       -0.14100
O          2.97700       -1.16100        0.30100
O          3.22000        0.96300       -0.66500
C          4.62500        0.93500       -0.80400
C          5.34200       -0.23100       -1.07700
C          6.72800       -0.17400       -1.23200
C          7.39300        1.04900       -1.14500
C          6.66200        2.21600       -0.90500
C          7.37700        3.50600       -0.84800
O          6.79500        4.56400       -0.64800
C          5.27600        2.16700       -0.73300
H          0.48100       -0.69800        0.11500
H          0.74300        0.47900       -1.18100
H          0.82500        0.99500        0.54000
H          4.84400       -1.19100       -1.17400
H          7.28500       -1.08700       -1.42500
H          8.47200        1.07700       -1.27200
H          8.46900        3.47300       -1.00300
H          4.71200        3.07900       -0.54900
