31
3424-98-4.pdb
C          8.91300        2.37900        3.25700
C          8.10900        1.77900        2.15200
C          7.33400        2.49500        1.33300
N          6.48100        1.91800        0.41100
C          5.36800        2.68100       -0.14700
C          5.33800        2.82800       -1.66400
C          4.57600        4.12700       -1.82400
O          3.17600        3.87800       -1.66200
C          5.10800        4.96400       -0.66900
C          6.42900        5.66700       -0.99900
O          6.89900        6.40100        0.13000
O          5.33600        4.02100        0.40400
C          6.47200        0.54100        0.20800
O          5.68000       -0.03700       -0.53100
N          7.38600       -0.16800        0.94000
C          8.08300        0.30700        2.01600
O          8.62500       -0.43200        2.82900
H          8.85300        3.47400        3.25000
H          9.96700        2.10100        3.17300
H          8.53200        2.03900        4.22600
H          7.30400        3.57400        1.43000
H          4.44500        2.19000        0.18800
H          4.85000        1.97700       -2.14900
H          6.35100        2.92200       -2.07000
H          4.71400        4.59500       -2.80200
H          2.96400        3.83300       -0.71000
H          4.37700        5.69000       -0.29600
H          7.21700        4.95700       -1.26800
H          6.29500        6.37200       -1.82500
H          6.86700        5.79200        0.89000
H          7.32200       -1.17400        0.86700
