31
34306-42-8.pdb
C          4.01400       -3.28100       -2.57400
C          3.30400       -2.85700       -1.29400
C          3.13900       -1.33100       -1.17200
N          2.35900       -0.73900       -2.25600
C          1.07400       -1.10100       -2.50300
O          0.42900       -1.78200       -1.71800
O          0.65100       -0.63800       -3.69700
C         -0.70600       -0.95700       -4.11800
C         -1.72400       -0.22300       -3.23600
C         -0.83800       -0.44000       -5.55800
C         -0.95100       -2.47200       -4.14500
C          2.62300       -0.95300        0.23200
O          1.38700       -1.39800        0.54800
O          3.30100       -0.32400        1.04000
H          4.18000       -4.36300       -2.56900
H          4.98700       -2.79100       -2.66600
H          3.41800       -3.04100       -3.46000
H          3.87400       -3.22900       -0.43500
H          2.33300       -3.36500       -1.25300
H          4.13400       -0.87300       -1.25300
H          2.82800       -0.22200       -2.98600
H         -1.60500        0.86300       -3.32600
H         -1.59900       -0.45600       -2.17500
H         -2.75100       -0.48000       -3.51600
H         -0.62900        0.63500       -5.61700
H         -1.84300       -0.61900       -5.95500
H         -0.11500       -0.93300       -6.21800
H         -0.90600       -2.93100       -3.15200
H         -0.19000       -2.97700       -4.75100
H         -1.93900       -2.70900       -4.55100
H          0.90900       -1.80200       -0.22100
