33
3458-72-8.pdb
N         -0.75300        0.37700        1.87900
N          0.34300       -2.59000        0.77600
N          1.18100        2.02700       -1.01500
O          4.56100       -0.39300       -1.42600
C          4.13100       -1.44200       -0.54300
C          3.17300       -0.93100        0.52100
C          2.87100        0.25500        1.40200
O          1.62300        0.23300        1.74900
O          3.64100        1.22300        1.51900
C          3.42400       -2.52200       -1.41600
C          1.97700       -2.18100       -1.78200
O          1.63300       -1.02200       -2.17200
O          1.11500       -2.98600       -1.26400
C          5.38700       -2.19000        0.05200
O          6.34300       -2.26200       -0.76100
O          5.24200       -2.66100        1.21700
H          0.31000        0.37800        1.96500
H         -0.99500       -0.17200        1.05300
H         -1.06000        1.32000        1.83500
H         -1.07100       -0.07900        2.71300
H          0.58200       -3.32100        0.05500
H          0.93900       -3.19700        1.33200
H          0.34600       -2.15900       -0.18900
H          1.02400       -1.83400        0.99600
H          2.20000        2.12600       -1.19500
H          0.67400        2.65900       -1.63900
H          1.09700        2.25000       -0.02300
H          1.02500        1.04300       -1.23200
H          5.43800       -0.74000       -1.72900
H          2.97800       -1.78900        1.18900
H          2.27600       -0.75800       -0.07000
H          3.39700       -3.47100       -0.85400
H          3.98300       -2.73500       -2.33600
