26
34590-94-8.pdb
C          0.87300       -0.13000        0.16800
O          2.28800       -0.04900        0.26400
C          2.76300        1.06600        1.03200
C          2.36200        0.94900        2.50200
C          4.29300        1.09500        0.87800
O          4.86200        2.22900        1.54200
C          6.30300        2.23100        1.52200
C          6.84700        2.43000        0.11100
C          6.77100        3.38400        2.42300
O          6.34700        3.16200        3.76600
H          0.62600       -0.86900       -0.59900
H          0.43900        0.83100       -0.12100
H          0.44600       -0.47400        1.11400
H          2.35200        1.99600        0.62000
H          2.65300       -0.02500        2.90800
H          1.27600        1.03200        2.61800
H          2.81700        1.73700        3.10900
H          4.52500        1.13800       -0.19200
H          4.72700        0.16900        1.27300
H          6.65800        1.28400        1.94800
H          6.35900        3.28000       -0.37800
H          6.65800        1.55000       -0.51100
H          7.92800        2.59900        0.12000
H          6.34500        4.33900        2.09800
H          7.86300        3.46900        2.42600
H          5.39000        2.97100        3.70400
