20
345909-35-5.pdb
O          1.48200        0.61100       -0.68000
C          2.41200        0.02300       -0.06300
O          2.85200        0.19000        1.11600
C          3.16800       -1.11100       -0.84700
C          2.80200       -1.36700       -2.11200
C          3.51600       -2.42700       -2.86300
O          3.24000       -2.67100       -4.03100
C          4.58100       -3.18100       -2.14700
C          5.23800       -4.24300       -2.77600
C          6.21400       -4.95900       -2.08300
C          6.53100       -4.60900       -0.76900
C          5.87800       -3.54200       -0.14600
C          4.90500       -2.81000       -0.83200
N          4.18500       -1.80100       -0.20200
H          2.01500       -0.82500       -2.61800
H          4.97700       -4.51300       -3.79600
H          6.71600       -5.79400       -2.56300
H          7.28200       -5.17300       -0.22200
H          6.11700       -3.28900        0.88300
H          4.47300       -1.36500        0.67200
