18
34671-83-5.pdb
C         -0.06500       -1.45900       -0.04600
C          1.12500       -0.77200       -0.05900
N          1.21100        0.57100       -0.02800
C          0.04400        1.25600        0.03400
N         -1.17500        0.66000        0.04900
C         -1.19800       -0.68400        0.00400
C          0.09600        2.74500        0.11200
N          1.17400        3.38400       -0.40800
C          1.18700        4.72600       -0.31400
C          0.18900        5.45700        0.28200
C         -0.86100        4.72800        0.78500
N         -0.93800        3.38800        0.71100
H         -0.10900       -2.53800       -0.07100
H          2.07500       -1.29700       -0.09300
H         -2.18800       -1.13000        0.01100
H          2.05800        5.21200       -0.74700
H          0.22500        6.53500        0.35100
H         -1.69800        5.21200        1.28100
