22
34698-41-4.pdb
N          0.98000        0.16900        0.01800
C          2.45600        0.07400       -0.03700
C          3.08100        1.15200        0.86700
C          3.86900        0.45800        1.99200
C          3.68700       -0.99500        1.69800
C          4.18100       -2.05900        2.43500
C          3.89100       -3.35700        2.00700
C          3.13200       -3.57500        0.85200
C          2.64700       -2.49900        0.10800
C          2.92500       -1.21000        0.55100
H          0.63400        1.06200       -0.35100
H          0.65000        0.06000        0.98500
H          0.55500       -0.58900       -0.52800
H          2.76000        0.19200       -1.08200
H          2.33400        1.83600        1.29100
H          3.76200        1.78100        0.28000
H          3.45500        0.71200        2.97300
H          4.92700        0.73800        1.95800
H          4.77900       -1.90000        3.32800
H          4.26400       -4.20800        2.57500
H          2.92300       -4.59600        0.53400
H          2.07100       -2.69000       -0.79200
