25
3471-31-6.pdb
C          0.93700       -0.28300        0.81100
O          2.25200       -0.12000        0.29200
C          2.93100        0.99000        0.72800
C          2.65600        1.67500        1.91200
C          3.39400        2.80400        2.28100
C          4.42300        3.21700        1.42900
N          5.28600        4.28000        1.53900
C          6.15700        4.29200        0.49200
C          5.85300        3.24100       -0.35300
C          6.59200        2.88600       -1.60800
C          6.62300        3.98300       -2.68000
O          7.22600        5.05500       -2.37500
O          6.11000        3.66000       -3.79400
C          4.74500        2.54800        0.24600
C          3.98400        1.40900       -0.09900
H          0.44100       -1.06600        0.23000
H          0.34600        0.63300        0.70600
H          0.96700       -0.61400        1.85500
H          1.86900        1.34800        2.58300
H          3.17300        3.33800        3.19900
H          5.28000        4.95500        2.28900
H          6.91800        5.05700        0.39700
H          6.17100        1.97300       -2.04600
H          7.63200        2.64900       -1.35000
H          4.20300        0.87300       -1.01700
