21
3481-02-5.pdb
O          1.13600        0.08800       -0.36100
C          2.32500       -0.05000       -0.10300
C          3.07100        0.97600        0.68700
C          2.58500        1.38200        2.05700
C          2.47700        2.34600        0.91200
C          3.08000       -1.22700       -0.60500
C          2.68200       -1.81600       -1.81100
C          3.41600       -2.87700       -2.34300
C          4.53600       -3.36100       -1.66600
C          4.91400       -2.79900       -0.44700
C          4.18500       -1.73500        0.08800
H          4.14700        0.97500        0.53400
H          3.32600        1.58200        2.82100
H          1.66500        0.94400        2.43100
H          3.15000        3.19500        0.88600
H          1.48900        2.55300        0.51300
H          1.81300       -1.43700       -2.34500
H          3.11800       -3.32200       -3.29000
H          5.11200       -4.18200       -2.08800
H          5.77800       -3.18900        0.08600
H          4.48600       -1.32200        1.04600
