37
3482-86-8.pdb
C          0.55400        1.07500        1.50500
C          2.02900        0.71700        1.57300
N          2.81900        1.93200        1.89400
C          4.07700        2.18500        1.35400
N          4.70000        1.35300        0.52600
N          4.56900        3.34300        1.59300
C          0.84100        0.20000       -1.96700
C          2.26200       -0.28600       -2.16000
N          3.26000        0.77600       -1.94600
C          3.64600        1.68200       -2.91000
N          3.23000        1.57400       -4.17800
N          4.35900        2.68300       -2.54000
O          2.62300       -2.11700        0.58600
S          4.07100       -1.89500        0.68700
O          4.31500       -1.02700        1.84700
O          4.83100       -3.12300        0.73300
O          4.47700       -1.06300       -0.47600
H         -0.01300        0.23100        1.09300
H          0.37600        1.94000        0.85900
H          0.15500        1.29600        2.49800
H          2.33300        0.36000        0.60000
H          2.20100       -0.01900        2.36000
H          2.28800        2.79400        1.78600
H          3.01700        1.88200        2.89900
H          4.59300        0.35200        0.77100
H          5.71200        1.47900        0.56900
H          4.03900        3.95000        2.22200
H          0.29400       -0.53500       -1.36200
H          0.32200        0.27100       -2.92500
H          0.77200        1.16400       -1.45400
H          2.43800       -0.76400       -3.12300
H          2.43600       -1.03700       -1.40600
H          3.10700        1.29900       -1.09300
H          4.10800        0.25200       -1.59700
H          3.13400        0.63800       -4.55800
H          3.77600        2.16600       -4.79400
H          4.64500        2.66900       -1.55700
