20
3485-84-5.pdb
C          1.12600       -0.00700        0.41300
C          2.28300        0.04900       -0.25300
N          3.03800        1.17800       -0.49100
C          2.77200        2.46600       -0.07300
O          1.85500        2.92900        0.58200
C          3.85500        3.30600       -0.58100
C          4.06900        4.66400       -0.44300
C          5.19700        5.20100       -1.07100
C          6.07000        4.38000       -1.81400
C          5.83600        3.00600       -1.92900
C          4.71900        2.50000       -1.29300
C          4.21000        1.13400       -1.22000
O          4.77900        0.18400       -1.72900
H          0.61000       -0.95400        0.53800
H          0.64900        0.86600        0.84700
H          2.69600       -0.87100       -0.66800
H          3.38600        5.28500        0.12800
H          5.40400        6.26700       -0.98800
H          6.93600        4.82300       -2.30300
H          6.49900        2.36200       -2.49800
