24
3491-63-2.pdb
C          1.49500        0.93400        0.50400
C          2.47300       -0.03200       -0.14900
C          3.11100       -0.94100        0.86400
C          4.42300       -1.08400        1.13500
C          4.81400       -2.08600        2.17800
O          4.01900       -2.78100        2.79700
C          5.48700       -0.32400        0.46400
C          5.90700        0.91100        0.97600
C          6.94500        1.61300        0.35900
C          7.57000        1.08700       -0.77100
C          7.15500       -0.13900       -1.28900
C          6.11600       -0.84300       -0.67500
H          1.03300        1.57300       -0.25600
H          1.99900        1.58100        1.22900
H          0.69300        0.39800        1.02300
H          3.21600        0.53900       -0.71600
H          1.93200       -0.65200       -0.87300
H          2.40100       -1.56000        1.41500
H          5.90000       -2.16400        2.35700
H          5.43300        1.33100        1.86000
H          7.26900        2.56900        0.76200
H          8.38100        1.63300       -1.24800
H          7.64500       -0.55000       -2.16900
H          5.80400       -1.79900       -1.09100
