45
3496-11-5.pdb
C          2.87300        1.46600        0.47700
C          2.54800        0.05400       -0.02700
C          1.04200       -0.19900        0.07800
C          3.05500       -0.21400       -1.45800
N          2.39800        0.66700       -2.43800
C          2.20200        0.29700       -3.74000
O          2.53600        1.04200       -4.65300
O          1.49800       -0.84900       -3.86800
C          0.77300       -0.95300       -5.10200
C          1.12200       -2.21500       -5.84400
C          0.44400       -3.41200       -5.57700
C          0.76200       -4.57500       -6.28000
C          1.76000       -4.55200       -7.25300
C          2.44100       -3.36700       -7.52500
C          2.12600       -2.20300       -6.82200
C          4.59400       -0.06500       -1.51000
O          5.39900       -0.67600       -0.82100
O          4.95000        0.84800       -2.46900
N          5.94900        0.38700       -3.33300
C          5.87000       -0.84000       -3.90700
O          5.06600       -1.72700       -3.66600
C          6.92700       -0.91600       -4.96400
C          7.37300        0.52700       -5.14400
C          6.68000        1.28700       -4.04600
O          6.72800        2.49500       -3.90900
H          2.46100        1.61900        1.48100
H          2.45400        2.23800       -0.17500
H          3.95400        1.62400        0.54300
H          3.04900       -0.65200        0.64900
H          0.47200        0.48000       -0.56500
H          0.69700       -0.04900        1.10700
H          0.80000       -1.22700       -0.21000
H          2.85200       -1.25300       -1.74800
H          2.71000        1.62900       -2.40800
H          0.89900       -0.08700       -5.76400
H         -0.29300       -0.96600       -4.84600
H         -0.33800       -3.44300       -4.82200
H          0.23200       -5.50000       -6.06600
H          2.00900       -5.46000       -7.79600
H          3.21800       -3.34900       -8.28400
H          2.66300       -1.28300       -7.04300
H          6.49200       -1.31600       -5.88300
H          7.74400       -1.55900       -4.62700
H          7.04200        0.91600       -6.11100
H          8.45600        0.63100       -5.05300
