28
34993-56-1.pdb
C          1.10300        0.06100       -0.01900
C          2.30400        0.07800       -0.02000
C          3.74500        0.08700       -0.02100
C          4.40000       -1.14900       -0.02100
C          5.79400       -1.21300       -0.02300
C          6.56200       -0.04400       -0.02400
C          7.96400       -0.10500       -0.02400
C          8.73100        1.06100       -0.02500
C          8.11500        2.31600       -0.02400
C          8.87600        3.49300       -0.02400
C          8.25300        4.73900       -0.02400
C          6.86200        4.82300       -0.02300
C          6.07400        3.66300       -0.02300
C          4.67800        3.73500       -0.02200
C          3.90300        2.57200       -0.02200
C          4.49300        1.29100       -0.02200
C          5.91300        1.21400       -0.02300
C          6.70000        2.39600       -0.02400
H          0.03800        0.04700       -0.01800
H          3.82700       -2.07300       -0.02000
H          6.27600       -2.18800       -0.02300
H          8.47700       -1.06400       -0.02400
H          9.81600        0.97800       -0.02500
H          9.96300        3.44700       -0.02500
H          8.85300        5.64500       -0.02500
H          6.39500        5.80500       -0.02200
H          4.17400        4.69800       -0.02100
H          2.82000        2.68100       -0.02100
