27
3508-94-9.pdb
C          0.92900       -0.07100       -0.23300
C          2.45500        0.04600       -0.07200
C          3.06400       -1.35700       -0.16300
C          3.04500        1.03200       -1.12400
C          2.47900        2.44300       -0.88700
O          2.33200        3.16500       -2.02300
O          2.19500        2.90100        0.21000
C          4.56700        1.11100       -1.17600
C          5.25500        0.86500       -2.37600
C          6.63400        1.07200       -2.45900
C          7.34500        1.51600       -1.34500
C          6.68100        1.71800       -0.13800
C          5.30300        1.51300       -0.05200
H          0.51600       -0.79700        0.47500
H          0.66000       -0.39600       -1.24400
H          0.42900        0.88400       -0.04100
H          2.64900        0.42400        0.94000
H          3.05200       -1.73400       -1.19100
H          2.50600       -2.06400        0.46100
H          4.09800       -1.36200        0.19600
H          2.67800        0.69700       -2.10600
H          2.67000        2.72100       -2.82100
H          4.72900        0.52100       -3.26400
H          7.15900        0.90100       -3.39700
H          8.41300        1.70700       -1.41700
H          7.23300        2.05700        0.73500
H          4.80400        1.70200        0.89900
