34
35132-20-8.pdb
N          5.46500        1.44500       -0.05800
C          4.59200        0.97100        1.07100
C          3.01900        1.06900        0.79300
N          2.46100        0.05500       -0.16400
C          2.63100        2.48400        0.40200
C          2.35200        3.41900        1.41600
C          2.04000        4.74300        1.10100
C          1.99700        5.15300       -0.22700
C          2.25900        4.24100       -1.24400
C          2.57300        2.91400       -0.93800
C          5.05700       -0.38800        1.54800
C          5.49700       -0.53800        2.87700
C          5.99500       -1.76100        3.33000
C          6.04800       -2.85400        2.47300
C          5.61300       -2.72700        1.15800
C          5.13200       -1.50100        0.69100
H          6.44300        1.46400        0.28300
H          5.27000        2.41900       -0.34300
H          5.49600        0.84600       -0.89000
H          4.80600        1.70100        1.86300
H          2.50500        0.82200        1.73300
H          2.80100        0.09800       -1.13100
H          1.43700        0.20000       -0.23100
H          2.55600       -0.91400        0.18100
H          2.35800        3.14500        2.47200
H          1.81600        5.46100        1.89100
H          1.74100        6.18500       -0.46900
H          2.19900        4.57400       -2.28100
H          2.75300        2.25500       -1.78200
H          5.49100        0.29100        3.58600
H          6.35700       -1.86400        4.35400
H          6.44500       -3.80500        2.82900
H          5.67600       -3.59100        0.49500
H          4.85400       -1.45800       -0.35800
