34
35264-09-6.pdb
C          3.58000       -1.57800       -1.02600
C          2.79800       -0.59500       -0.13700
C          2.76600        0.82300       -0.72500
C          1.35200       -1.11200       -0.05400
O          3.30600       -0.57000        1.22400
C          4.61300       -0.24000        1.40700
O          5.38100        0.06900        0.50200
N          4.97000       -0.34100        2.71100
C          6.36700       -0.35600        3.21500
C          7.15400        0.90400        2.83000
C          8.58700        0.45900        2.53900
C          8.60300       -1.06400        2.52400
C          7.15200       -1.51500        2.58300
C          6.39700       -0.52000        4.79000
O          5.24300       -0.64100        5.31300
O          7.52800       -0.51900        5.35100
H          3.13400       -1.65400       -2.02300
H          3.59600       -2.57600       -0.57300
H          4.62400       -1.29000       -1.17000
H          2.33700        0.83000       -1.73200
H          3.76100        1.27200       -0.78800
H          2.17000        1.48900       -0.08900
H          0.88500       -1.14800       -1.04500
H          0.73800       -0.47800        0.59400
H          1.32100       -2.12100        0.37300
H          4.28300       -0.59100        3.41800
H          7.13400        1.66700        3.61600
H          6.75400        1.39400        1.93600
H          9.27400        0.83800        3.30300
H          8.92400        0.86100        1.57700
H          9.15700       -1.44600        3.38800
H          9.10100       -1.45200        1.62900
H          7.04800       -2.45100        3.14300
H          6.81500       -1.72900        1.56300
