18
353-09-3.pdb
N          1.20000       -0.10400       -0.27400
C          2.54100       -0.04600       -0.14600
N          3.04800        0.93100       -0.92600
N          3.14600       -0.86800        0.63100
C          4.61200       -0.78300        0.70900
C          5.10200       -1.70100        1.82100
C          4.77400       -3.15800        1.58900
O          3.53000       -3.38500        1.12100
O          5.54200       -4.07100        1.87500
H          0.74200        0.78100       -0.44300
H          0.75900       -0.61900        0.48200
H          2.52000        1.10900       -1.77200
H          4.04000        0.87000       -1.11800
H          4.93400        0.24100        0.93000
H          5.04900       -1.09700       -0.24700
H          4.68300       -1.40900        2.78900
H          6.19400       -1.61500        1.88300
H          3.06000       -2.52900        0.94400
