28
35308-00-0.pdb
C          1.18100        0.17300        0.37900
O          2.54100        0.02300       -0.02000
C          3.05500        1.05600       -0.76700
C          2.60700        2.38000       -0.68800
C          3.19000        3.37500       -1.47800
C          4.22600        3.05600       -2.35100
C          4.69300        1.74100       -2.41600
C          5.81000        1.39300       -3.32900
O          6.28700        2.23800       -4.07800
C          6.34800        0.01100       -3.30700
C          7.44800       -0.32700       -4.10100
C          7.96000       -1.62200       -4.05300
C          7.36800       -2.57300       -3.22000
C          6.25900       -2.23400       -2.43600
C          5.74200       -0.93600       -2.46300
N          4.61700       -0.58500       -1.70900
C          4.13100        0.73400       -1.61400
H          0.86500       -0.76300        0.85200
H          0.53300        0.34800       -0.48700
H          1.06600        0.96700        1.12400
H          1.81500        2.67500       -0.00700
H          2.83900        4.40200       -1.40800
H          4.67700        3.82900       -2.96900
H          7.90500        0.41800       -4.74900
H          8.82000       -1.88900       -4.66400
H          7.77100       -3.58200       -3.18300
H          5.81100       -2.99300       -1.80000
H          4.25700       -1.23100       -1.01600
