16
3530-15-2.pdb
C          1.33600        0.20700       -0.09800
C          2.80000        0.00800       -0.06100
N          3.43000       -1.14000        0.08900
N          4.78100       -0.89000        0.08400
C          4.95600        0.40800       -0.06800
C          6.25100        1.11900       -0.11300
N          3.72800        1.01400       -0.16100
N          3.46900        2.41000       -0.32000
H          0.81900       -0.75800       -0.10200
H          1.03400        0.75500       -0.99600
H          1.00200        0.76400        0.78300
H          7.08000        0.40300       -0.12400
H          6.37000        1.75500        0.77100
H          6.33100        1.74100       -1.00800
H          4.18900        2.97500        0.12600
H          2.59900        2.68100        0.13400
