24
35359-27-4.pdb
C          0.92900       -0.06300        0.08400
C          2.43100       -0.03900        0.08800
C          3.13400       -1.18100        0.09100
C          4.59900       -1.15200        0.09600
N          5.35300       -2.21200        0.10000
N          6.61600       -1.70900        0.10400
C          6.59400       -0.31300        0.10300
S          8.01300        0.54600        0.10700
N          5.25700        0.03900        0.09800
C          4.57200        1.28200        0.09400
C          5.22000        2.52400        0.09400
C          4.49500        3.72000        0.08800
C          3.10900        3.69600        0.08300
C          2.44200        2.47300        0.08300
C          3.15300        1.25800        0.08900
H          0.53600       -1.08500        0.08400
H          0.53600        0.43300       -0.81000
H          0.53100        0.43600        0.97300
H          2.67100       -2.16100        0.09000
H          7.43700       -2.30200        0.10700
H          6.29800        2.61800        0.09800
H          5.02100        4.67200        0.08800
H          2.54400        4.62400        0.07900
H          1.35700        2.49400        0.08000
