19
35356-70-8.pdb
C          1.01600       -0.55900        0.19000
O          2.43300       -0.40100        0.24500
C          3.10200       -0.87500       -0.83600
O          2.60000       -1.41700       -1.81400
C          4.59200       -0.72000       -0.69100
C          5.09600        0.09900        0.24400
N          5.34700       -1.46100       -1.58900
C          6.72000       -1.55900       -1.68500
C          7.18600       -2.49600       -2.77300
O          7.54000       -0.97600       -0.98200
H          0.60400       -0.22000        1.14500
H          0.74400       -1.61000        0.05200
H          0.59900        0.06200       -0.60800
H          4.46000        0.67200        0.91200
H          6.16000        0.25100        0.38400
H          4.78400       -1.99800       -2.24600
H          6.35400       -2.96000       -3.30700
H          7.79100       -3.28700       -2.31900
H          7.79400       -1.93500       -3.48800
