17
3538-65-6.pdb
C          1.03000        0.12800       -0.07800
C          2.54900        0.09800       -0.03200
C          3.15300        1.44500       -0.42000
C          4.66400        1.42300       -0.29900
O          5.34600        0.40300       -0.35800
N          5.21400        2.69000       -0.14100
N          6.61600        2.82900       -0.06600
H          0.62400       -0.84000        0.23000
H          0.67200        0.34400       -1.08800
H          0.63300        0.89200        0.60000
H          2.91500       -0.68700       -0.70400
H          2.87300       -0.17500        0.97900
H          2.75300        2.23100        0.23200
H          2.89700        1.69600       -1.45500
H          4.64200        3.52400       -0.25800
H          7.01800        1.93600       -0.38800
H          6.87400        2.86200        0.92400
