33
3549-23-3.pdb
C          1.16100       -0.82100       -0.16700
O          2.53800       -0.44200       -0.13900
C          3.03500       -0.11600       -1.37000
O          2.38100       -0.14200       -2.40400
C          4.49400        0.27400       -1.23900
C          5.12100        0.66900       -2.55400
C          5.07200        1.99500       -2.98900
C          5.55600        2.34900       -4.25400
C          6.10000        1.39100       -5.12400
C          6.16900        0.06500       -4.65800
C          5.68600       -0.29300       -3.39500
C          6.57800        1.74100       -6.54400
C          6.37300        3.22800       -6.91600
C          8.08400        1.43500       -6.67700
C          5.80000        0.90500       -7.58500
H          0.86000       -1.08500        0.85100
H          1.01600       -1.69600       -0.80900
H          0.54200        0.01500       -0.50700
H          5.04600       -0.57100       -0.81100
H          4.56900        1.11100       -0.53400
H          4.63100        2.76700       -2.36300
H          5.47300        3.39300       -4.54100
H          6.58300       -0.72100       -5.28700
H          5.73000       -1.33600       -3.08900
H          6.93900        3.89100       -6.25200
H          5.31600        3.51300       -6.86200
H          6.71000        3.43200       -7.93900
H          8.67100        2.02000       -5.96000
H          8.44800        1.67800       -7.68200
H          8.30900        0.37700       -6.50100
H          4.72100        1.08800       -7.51100
H          5.96100       -0.17100       -7.45900
H          6.11200        1.15700       -8.60500
