17
35613-84-4.pdb
C          1.09300       -0.06400        0.07100
C          2.61400        0.02500       -0.04000
C          3.07600       -0.48800       -1.40200
C          3.15700        1.44700        0.18100
N          2.39600        2.52800       -0.18000
N          4.34100        1.70500        0.67100
O          5.05500        0.54400        0.97700
H          0.76100       -1.10400       -0.01900
H          0.59100        0.50900       -0.71600
H          0.75000        0.31700        1.03800
H          3.02500       -0.62900        0.73800
H          2.71300        0.15100       -2.21400
H          2.71100       -1.50500       -1.58000
H          4.16900       -0.51000       -1.46500
H          1.39100        2.44300       -0.10200
H          2.75500        3.39600        0.20800
H          5.92200        0.90100        1.24600
