29
3562-73-0.pdb
C          1.01700       -0.00100        0.08700
C          2.54100       -0.00900        0.01900
O          3.03900       -0.52200        1.25300
C          3.05000       -0.81200       -1.16300
C          3.79700       -0.19200       -2.16900
C          4.19300       -0.90200       -3.31400
C          3.87100       -2.25900       -3.48600
C          3.17100       -2.88000       -2.43700
C          2.75700       -2.17400       -1.30200
C          4.21700       -3.00600       -4.72300
C          5.36600       -2.71100       -5.48000
C          5.67200       -3.41800       -6.65100
C          4.84200       -4.44600       -7.08700
C          3.70100       -4.76000       -6.36200
C          3.38800       -4.04100       -5.20100
H          0.67700        0.60600        0.93300
H          0.61500       -1.00800        0.25100
H          0.57700        0.39900       -0.83200
H          2.89000        1.02700       -0.05500
H          3.25000       -1.46100        1.13000
H          4.06200        0.86100       -2.09000
H          4.73500       -0.36000       -4.08600
H          2.92600       -3.93900       -2.48700
H          2.18500       -2.69900       -0.54200
H          6.05200       -1.92900       -5.16500
H          6.56300       -3.16300       -7.21800
H          5.08400       -5.00000       -7.99000
H          3.04400       -5.56000       -6.69300
H          2.47200       -4.30100       -4.68000
