32
3564-73-6.pdb
N          2.81100       -1.37700        0.02700
C          2.37000       -0.10300       -0.20500
O          1.32100        0.23800        0.33600
N          3.23000        0.70400       -0.96100
C          2.93000        2.08400       -1.24100
C          1.59000        2.43800       -1.50500
C          1.22000        3.74100       -1.84500
C          2.18400        4.73300       -1.91600
C          3.51300        4.41600       -1.64800
C          3.91100        3.10100       -1.30800
C          5.38900        2.94700       -0.99900
C          5.88100        1.60100       -0.48600
C          5.60800        0.54200       -1.51300
C          6.64300       -0.04800       -2.25000
C          6.36000       -1.02500       -3.20500
C          5.04400       -1.42300       -3.42900
C          4.00900       -0.84600       -2.69300
C          4.28600        0.14500       -1.73900
H          2.27400       -1.86900        0.72800
H          3.81200       -1.51800        0.07200
H          0.80500        1.68300       -1.49400
H          0.18000        3.97100       -2.06000
H          1.90600        5.75100       -2.17700
H          4.25600        5.21100       -1.69600
H          5.65100        3.69700       -0.24100
H          5.94500        3.20400       -1.91100
H          5.40300        1.33600        0.46500
H          6.95600        1.66000       -0.27800
H          7.67600        0.25300       -2.08900
H          7.16700       -1.47400       -3.77900
H          4.82000       -2.17900       -4.17700
H          2.98400       -1.15700       -2.87700
