40
35661-39-3.pdb
C          4.82500        3.02900        7.62800
C          3.87600        3.11800        6.44400
N          3.07700        1.90500        6.27900
C          3.52700        0.82900        5.57700
O          4.62000        0.73300        5.04700
O          2.54600       -0.09600        5.54500
C          2.82600       -1.30000        4.80000
C          3.54200       -2.33900        5.66900
C          2.68500       -2.82400        6.83900
C          2.14500       -2.08600        7.88200
C          1.40300       -2.75700        8.85500
C          1.21800       -4.14600        8.78200
C          1.77000       -4.88800        7.73300
C          2.50300       -4.22100        6.76300
C          3.18200       -4.72200        5.58900
C          3.28500       -6.01200        5.09300
C          4.01800       -6.21900        3.92200
C          4.63900       -5.14500        3.26100
C          4.53700       -3.84200        3.76100
C          3.80200       -3.64200        4.91900
C          2.93700        4.32900        6.56500
O          1.70800        4.09300        6.03800
O          3.25800        5.41600        7.01300
H          5.49300        2.16700        7.53600
H          4.28000        2.93700        8.57400
H          5.44600        3.93100        7.69200
H          4.45500        3.26400        5.52400
H          2.29800        1.71600        6.90100
H          3.41000       -1.05900        3.90200
H          1.86100       -1.68000        4.44200
H          4.48500       -1.95300        6.07300
H          2.29300       -1.01500        7.95300
H          0.96700       -2.20000        9.68100
H          0.64200       -4.65100        9.55300
H          1.62600       -5.96200        7.69000
H          2.81300       -6.84800        5.59600
H          4.11300       -7.22400        3.51700
H          5.21000       -5.32900        2.35300
H          5.02600       -3.01900        3.25000
H          1.68100        3.21300        5.60700
