35
35778-58-6.pdb
C          2.08100        0.01400        1.40900
C          2.60200       -0.07400       -0.01700
N          3.08600       -1.41500       -0.35400
C          2.10800       -2.46000       -0.67100
C          2.05000       -3.50800        0.43400
C          4.44800       -1.68300       -0.39100
C          5.32600       -1.14200        0.56000
C          6.69200       -1.44400        0.56100
C          7.22500       -2.28600       -0.41200
C          6.38200       -2.81500       -1.38700
C          5.01300       -2.51800       -1.36800
C          8.65200       -2.60500       -0.40400
C          9.20300       -3.63100        0.25600
S          8.42200       -4.82900        1.22200
C          9.93300       -5.62100        1.60600
S         10.13300       -6.96200        2.55700
N         10.96200       -4.96800        1.00000
C         10.67000       -3.87100        0.24300
O         11.49600       -3.19300       -0.34800
H          1.72600        1.03000        1.61300
H          2.85700       -0.22300        2.14200
H          1.24500       -0.67200        1.57400
H          3.38400        0.68000       -0.17200
H          1.79400        0.19900       -0.70700
H          2.32800       -2.94100       -1.63000
H          1.11000       -2.02100       -0.78700
H          3.01800       -3.99700        0.58000
H          1.31700       -4.28200        0.18400
H          1.75700       -3.06000        1.38800
H          4.95000       -0.50200        1.35100
H          7.32500       -1.02200        1.33800
H          6.77300       -3.46000       -2.17000
H          4.39800       -2.93100       -2.16200
H          9.27600       -1.92000       -0.97400
H         11.91900       -5.27200        1.10300
