34
35873-49-5.pdb
C          2.69500       -1.33900        0.05800
N          1.42600       -0.63900        0.01700
C          1.44100        0.77100        0.00700
O          2.50100        1.40300        0.01100
N          0.20400        1.42100       -0.00300
C          0.13200        2.87000        0.00300
C         -0.95000        0.67500       -0.00100
N         -2.22500        1.15200        0.00800
C         -2.99500        0.07500        0.01700
N         -2.22800       -1.07200        0.00200
C         -0.92200       -0.68100       -0.00100
C          0.27700       -1.44000        0.00400
O          0.28400       -2.66700        0.00400
C         -4.48700        0.03800        0.04400
C         -5.12300        0.75800       -1.14300
C         -6.53600        1.11200       -0.68200
C         -6.53100        1.01100        0.84300
C         -5.07800        0.78100        1.24000
H          3.55400       -0.66400        0.05000
H          2.76300       -2.00800       -0.80600
H          2.73300       -1.94600        0.96800
H          1.12400        3.32800       -0.02000
H         -0.38200        3.19700        0.91200
H         -0.42700        3.20600       -0.87700
H         -2.56400       -2.02700        0.00400
H         -4.83900       -1.00200        0.06100
H         -5.13500        0.13500       -2.04400
H         -4.58100        1.67900       -1.39400
H         -7.27000        0.41600       -1.10300
H         -6.81300        2.11800       -1.01500
H         -7.14700        0.16000        1.15700
H         -6.94500        1.90700        1.31500
H         -4.99600        0.20800        2.16900
H         -4.58200        1.74600        1.40200
