19
3587-64-2.pdb
C          1.05200       -2.23200       -0.93200
O          2.47400       -2.19100       -0.92200
C          2.96300       -1.36800        0.14900
C          4.50300       -1.34500        0.11400
C          5.03600       -0.80000       -1.21200
C          5.04400       -0.52800        1.28600
O          4.98600       -2.68600        0.25700
H          0.73300       -2.86400       -1.76400
H          0.64100       -1.22800       -1.07900
H          0.67400       -2.66200       -0.00000
H          2.61600       -1.79900        1.09500
H          2.56000       -0.35300        0.04300
H          4.70900        0.23000       -1.38400
H          4.70700       -1.41500       -2.05700
H          6.13200       -0.82500       -1.22800
H          4.72300        0.51700        1.23100
H          6.13900       -0.55400        1.30800
H          4.70500       -0.94500        2.24100
H          4.50500       -3.20800       -0.41500
