16
3588-17-8.pdb
O          1.19000       -0.01700        0.03300
C          2.53400        0.05300        0.09900
O          3.12800        0.81600        0.84000
C          3.18900       -0.89700       -0.82600
C          4.52900       -0.93500       -0.86300
C          5.28400       -1.81900       -1.72400
C          6.62600       -1.82600       -1.73000
C          7.35600       -2.74600       -2.62400
O          8.69200       -2.61700       -2.49900
O          6.82700       -3.53200       -3.39000
H          0.83000       -0.66600       -0.59700
H          2.58100       -1.53700       -1.45000
H          5.09800       -0.26800       -0.21500
H          4.73300       -2.49200       -2.38000
H          7.19300       -1.16700       -1.08700
H          8.99700       -1.95400       -1.85400
