31
35888-99-4.pdb
O          4.47000        2.13100       -2.05700
C          4.25600        1.07300       -1.23800
O          3.57300        0.11700       -1.56800
C          4.94300        1.24300        0.08800
C          4.68800        0.06600        1.03400
C          5.40300        0.18600        2.36300
C          5.67600        1.42000        2.96100
C          6.33300        1.49600        4.19200
C          6.70700        0.34500        4.90100
C          6.39800       -0.89100        4.30700
C          5.76200       -0.97300        3.06000
C          7.38000        0.43400        6.22000
C          7.12200        1.49600        7.10800
C          7.74700        1.57700        8.35600
C          8.63900        0.58700        8.75300
C          8.91700       -0.47200        7.89600
C          8.30200       -0.54100        6.64200
H          5.03300        2.82400       -1.66400
H          4.55800        2.17000        0.52400
H          6.01900        1.34700       -0.09200
H          5.01100       -0.85800        0.53700
H          3.61400       -0.03600        1.22700
H          5.38900        2.35600        2.49000
H          6.55100        2.48600        4.58800
H          6.63400       -1.82300        4.81700
H          5.54500       -1.95500        2.64600
H          6.41100        2.27700        6.84700
H          7.52700        2.41100        9.01800
H          9.11600        0.64100        9.72800
H          9.61400       -1.24900        8.19900
H          8.56300       -1.37200        5.99200
