26
3597-91-9.pdb
O          3.27800        0.79400       -0.96400
C          2.38900        0.08100       -0.11600
C          2.82800        0.22400        1.31300
C          2.98900        1.48800        1.88900
C          3.38400        1.62100        3.22800
C          3.61600        0.49900        4.04300
C          3.43700       -0.76300        3.44900
C          3.05400       -0.90200        2.10800
C          4.02200        0.63200        5.46400
C          3.57500        1.69800        6.26700
C          3.93900        1.80300        7.61500
C          4.75400        0.83900        8.19600
C          5.21600       -0.22300        7.42800
C          4.86300       -0.31800        6.07700
H          2.98900        0.62700       -1.87600
H          2.38700       -0.96900       -0.42800
H          1.37700        0.48300       -0.23900
H          2.82100        2.38100        1.29000
H          3.52100        2.62800        3.61800
H          3.58300       -1.67100        4.02900
H          2.94100       -1.90100        1.69500
H          2.91800        2.46100        5.85600
H          3.57800        2.63900        8.20900
H          5.02700        0.91200        9.24600
H          5.85600       -0.98100        7.87300
H          5.26500       -1.15000        5.50500
