17
3598-14-9.pdb
N          1.16800       -0.20700       -0.34600
C          2.31500       -0.13400       -0.18400
C          3.77000       -0.00400        0.01400
O          4.26500       -1.14600        0.71900
C          5.61000       -1.18500        0.96100
C          6.44600       -0.07500        1.09500
C          7.80200       -0.25400        1.39100
C          8.32500       -1.53700        1.55100
C          7.49200       -2.64500        1.42100
C          6.13800       -2.46600        1.13500
H          3.95700        0.91200        0.58200
H          4.26400        0.06400       -0.96300
H          6.07900        0.94100        1.00800
H          8.45200        0.61000        1.50900
H          9.37800       -1.67200        1.78500
H          7.89200       -3.64700        1.55000
H          5.48900       -3.33400        1.04400
