19
36122-35-7.pdb
O          1.24500       -1.21100        1.27800
C          0.64800       -0.40700        0.58800
O          0.61900       -0.36000       -0.75400
C         -0.15700        0.67300       -1.14800
O         -0.38500        0.97800       -2.30400
C         -0.67000        1.34300        0.05800
C         -0.16700        0.68000        1.09800
C         -1.55000        2.51400        0.10700
C         -1.52400        3.47800       -0.91100
C         -2.38800        4.57700       -0.88400
C         -3.29200        4.73000        0.16300
C         -3.32800        3.78800        1.18700
C         -2.46400        2.68900        1.16000
H         -0.29400        0.86400        2.15000
H         -0.83400        3.39200       -1.74900
H         -2.35800        5.30800       -1.68900
H         -3.97000        5.57900        0.17700
H         -4.03700        3.90300        2.00400
H         -2.53600        1.96500        1.96800
