21
36140-83-7.pdb
C          1.11400       -0.23600       -0.11200
C          2.59500       -0.11800       -0.09200
C          3.34200        1.07200       -0.01300
C          4.66100        0.67700       -0.00900
C          5.89300        1.50400       -0.01500
N          4.66200       -0.70800       -0.08500
N          3.38900       -1.20100       -0.15700
C          5.77400       -1.58100       -0.10900
O          6.87000       -1.19900        0.28900
C          5.53500       -2.92800       -0.74300
C          5.19000       -2.64300       -2.19600
N          4.90400       -2.40700       -3.40100
H          0.64200        0.75300       -0.11900
H          0.75800       -0.76800        0.77800
H          0.77300       -0.77200       -1.00300
H          2.96800        2.08700        0.01600
H          5.64400        2.57000       -0.05200
H          6.50400        1.27900       -0.89600
H          6.48700        1.33200        0.88800
H          4.73800       -3.47700       -0.23500
H          6.45500       -3.51900       -0.68900
