30
3616-56-6.pdb
C          2.67700        1.50700       -0.57300
C          2.21100        0.06700       -0.44300
O          3.00800       -0.85900       -1.16000
C          4.40500       -0.94500       -0.83800
C          4.62500       -1.41000        0.63300
N          6.01800       -1.44900        1.17100
C          5.96800       -1.77300        2.60400
C          6.84500       -2.42900        0.46600
O          4.97800       -1.92000       -1.72100
C          4.89900       -1.53300       -3.09200
C          5.58100       -2.60200       -3.92400
H          1.91400        2.19000       -0.18800
H          2.88100        1.75800       -1.62300
H          3.59600        1.67500       -0.00600
H          1.20400       -0.00800       -0.86600
H          2.12100       -0.22800        0.60700
H          4.89700        0.02000       -1.00700
H          4.16100       -2.39800        0.75600
H          4.07000       -0.73000        1.28700
H          5.72700       -0.87000        3.17600
H          6.93700       -2.12800        2.98000
H          5.22200       -2.54100        2.83900
H          7.04800       -2.10800       -0.56000
H          6.39400       -3.42600        0.45400
H          7.83200       -2.50800        0.93700
H          5.39800       -0.57000       -3.24000
H          3.85300       -1.44900       -3.40100
H          6.63100       -2.70600       -3.63300
H          5.53100       -2.35800       -4.98900
H          5.10800       -3.57600       -3.76300
