39
362-75-4.pdb
C          0.91200        0.09700        0.34700
C          2.41400        0.09000        0.07800
C          3.17700        0.51700        1.32400
O          2.73500        0.98900       -0.98600
C          2.91100        0.18700       -2.15300
C          1.59800        0.01300       -2.91900
C          1.65700        0.52500       -4.36100
O          0.37700        0.36100       -4.97400
O          1.28400       -1.39900       -2.94500
C          2.45800       -2.13200       -2.52200
C          3.26200       -1.18300       -1.63900
O          2.78600       -1.24000       -0.28200
N          3.08300       -2.64700       -3.72200
C          2.49700       -3.57100       -4.55500
N          3.23600       -3.81500       -5.61900
C          4.34400       -3.00800       -5.47100
C          5.47400       -2.78600       -6.27500
N          5.66500       -3.38800       -7.51000
N          6.43400       -1.94600       -5.82700
C          6.24100       -1.32400       -4.64700
N          5.18300       -1.42000       -3.82000
C          4.27500       -2.29200       -4.28500
H          0.52900        1.11600        0.45200
H          0.67100       -0.48100        1.24500
H          0.36100       -0.38200       -0.46800
H          2.92300        1.54400        1.60800
H          4.25800        0.48600        1.15000
H          2.96600       -0.15000        2.16800
H          3.69000        0.63300       -2.78000
H          0.76200        0.51800       -2.42600
H          2.37800       -0.03100       -4.96600
H          1.91000        1.58800       -4.39200
H          0.11600       -0.56800       -4.82500
H          2.11500       -3.00100       -1.95000
H          4.33100       -1.39200       -1.58200
H          1.53000       -4.00900       -4.34600
H          5.12300       -4.23400       -7.64400
H          6.63600       -3.39300       -7.79000
H          7.03800       -0.66100       -4.32400
