36
362-43-6.pdb
C          2.17400       -0.11300       -1.44600
C          1.42900       -0.05900       -0.12300
C          2.42000        0.02000        1.04500
O          0.60100       -1.21400        0.02900
C         -0.55600       -0.77300        0.75800
C         -1.86200       -1.09500        0.02900
C         -2.82900       -1.92100        0.89000
O         -4.02400       -2.20700        0.16000
O         -2.53500        0.14400       -0.28800
C         -1.83900        1.22400        0.34300
C         -0.47100        0.73200        0.80000
O          0.57200        1.08100       -0.12200
N         -2.70400        1.78900        1.39200
C         -3.60300        2.77500        1.02400
C         -4.34800        3.42600        1.92600
C         -4.19200        3.07700        3.34500
O         -4.69100        3.76300        4.22600
N         -3.45400        1.96300        3.60000
C         -2.65900        1.31400        2.69500
O         -1.94100        0.39300        3.08500
H          2.82900       -0.98800       -1.50100
H          2.77300        0.79300       -1.59600
H          1.46900       -0.17600       -2.28200
H          3.09200       -0.84400        1.05100
H          1.90500        0.02000        2.01200
H          3.01300        0.93900        0.99900
H         -0.51700       -1.23300        1.75000
H         -1.68700       -1.61700       -0.91900
H         -3.14000       -1.37800        1.78500
H         -2.38000       -2.87000        1.19300
H         -4.38600       -1.34100       -0.10900
H         -1.70000        1.99900       -0.42100
H         -0.16000        1.14400        1.76300
H         -3.67800        3.01700       -0.03400
H         -5.04100        4.21400        1.66900
H         -3.34500        1.69700        4.56700
