16
3623-15-2.pdb
O          1.26800       -0.44900        0.34300
C          2.35900       -0.02700       -0.01600
C          2.92200       -0.49300       -1.26600
C          3.40100       -0.88400       -2.29600
C          3.14800        0.93400        0.80300
C          2.66000        1.29000        2.06800
C          3.38600        2.16000        2.88500
C          4.59900        2.68400        2.44100
C          5.08300        2.34900        1.17700
C          4.36100        1.47800        0.35800
H          3.83300       -1.23500       -3.20500
H          1.71500        0.88400        2.42700
H          3.00600        2.42400        3.86900
H          5.16800        3.35400        3.08000
H          6.02800        2.76300        0.83100
H          4.76600        1.23800       -0.62100
