33
36263-51-1.pdb
C          2.82200       -0.08500        1.22100
O          2.23200        0.11000       -0.05900
C          3.04800       -0.05700       -1.14100
C          4.40600       -0.35500       -1.10400
C          5.13200       -0.50300       -2.29400
C          4.52200       -0.37600       -3.55700
C          3.15400       -0.04400       -3.56800
C          2.43100        0.10500       -2.37900
C          5.33500       -0.53500       -4.86700
C          6.51600       -1.53700       -4.67500
C          7.24800       -1.92600       -5.96100
C          6.29100       -2.44400       -7.02200
C          5.19700       -1.42800       -7.30400
C          4.43600       -1.05100       -6.03200
C          5.89000        0.79800       -5.23900
N          6.33500        1.82500       -5.54900
H          2.04600        0.06900        1.97600
H          3.61500        0.64800        1.40500
H          3.19600       -1.10800        1.33100
H          4.94000       -0.47300       -0.16700
H          6.19400       -0.71300       -2.19500
H          2.61300        0.11500       -4.49700
H          1.37300        0.35500       -2.42200
H          6.13700       -2.45800       -4.21000
H          7.27100       -1.12700       -3.99200
H          7.99200       -2.69800       -5.73300
H          7.80100       -1.06300       -6.35000
H          5.84300       -3.38700       -6.68600
H          6.84300       -2.66100       -7.94300
H          4.49500       -1.84200       -8.03700
H          5.63300       -0.53000       -7.75900
H          3.87800       -1.93600       -5.69400
H          3.69000       -0.29800       -6.31500
