20
36315-01-2.pdb
C          3.38900        0.35200        0.98400
O          2.59000       -0.00900       -0.14000
C          3.16000       -1.03700       -0.86600
C          2.77200       -1.15700       -2.17400
C          3.41100       -2.15400       -2.86200
O          3.08900       -2.26800       -4.20300
C          3.81700       -3.29600       -4.86800
N          4.32100       -2.98100       -2.32000
C          4.58000       -2.80300       -1.02400
N          5.51300       -3.62500       -0.43200
N          4.05000       -1.84400       -0.26700
H          2.94400        1.23900        1.44400
H          4.40700        0.61500        0.67100
H          3.40600       -0.44400        1.73700
H          2.04800       -0.50100       -2.63000
H          3.48400       -3.31900       -5.91000
H          3.61000       -4.27800       -4.43000
H          4.89200       -3.08300       -4.86700
H          6.16400       -3.96700       -1.12700
H          5.90300       -3.16200        0.37900
