23
3637-01-2.pdb
C          1.38100        0.83700        0.63800
C          2.54200        0.08800        0.03300
O          2.93800       -0.96900        0.51900
C          3.20400        0.64900       -1.18300
C          2.79900        1.85400       -1.75700
C          3.42400        2.32100       -2.91700
C          4.46200        1.59500       -3.52400
C          5.07100        2.12900       -4.79100
C          4.89100        0.38900       -2.93800
C          6.00600       -0.45000       -3.50100
C          4.25500       -0.07000       -1.76900
H          0.99800        0.27400        1.49500
H          0.57200        0.93400       -0.09100
H          1.70800        1.81700        0.99300
H          1.99800        2.45100       -1.33200
H          3.08600        3.25900       -3.35200
H          4.60000        3.06900       -5.10000
H          4.93400        1.41300       -5.60800
H          6.13700        2.32700       -4.64800
H          6.43300       -0.03500       -4.41800
H          5.63500       -1.45300       -3.73800
H          6.81700       -0.53200       -2.76900
H          4.57900       -1.00600       -1.31700
