21
36567-72-3.pdb
O          1.86200        1.11300        0.72100
C          2.45900        0.04000       -0.02500
C          1.47600       -1.12100       -0.16000
C          1.07000       -1.66400        1.20900
O          1.06600       -0.82500        2.15700
O          0.77000       -2.89200        1.22900
C          2.93200        0.58600       -1.37200
C          2.74500        1.93700       -1.71500
C          3.21600        2.45400       -2.92300
C          3.88400        1.62600       -3.81900
C          4.07700        0.28400       -3.50500
C          3.60900       -0.23400       -2.28900
H          1.48700        0.65500        1.51700
H          3.34700       -0.27500        0.53700
H          1.92000       -1.94200       -0.73400
H          0.56300       -0.80500       -0.67500
H          2.22900        2.60300       -1.02600
H          3.06000        3.50300       -3.15300
H          4.25300        2.02800       -4.75800
H          4.59800       -0.36800       -4.20300
H          3.78000       -1.28300       -2.06100
