11
3658-80-8.pdb
C          3.58200        1.19300       -1.49800
S          3.05500        0.28900       -0.02500
S          3.66500       -1.62300       -0.45600
S          5.71800       -1.55000       -0.39000
C          6.02800       -1.30700        1.37200
H          3.25200        2.23000       -1.40800
H          3.13900        0.76500       -2.40000
H          4.67400        1.19300       -1.57900
H          7.10900       -1.30300        1.54100
H          5.59700       -2.11600        1.95900
H          5.63300       -0.34100        1.70200
