22
3663-82-9.pdb
O          1.29900       -0.87700       -0.85600
C          2.10500       -0.13900        0.05500
C          2.87800        0.97600       -0.66800
C          3.84300        0.45800       -1.73200
O          4.85300       -0.38700       -1.16700
C          5.35200        0.12900        0.00200
C          6.48100       -0.49300        0.52800
C          7.03100       -0.03700        1.72500
C          6.46200        1.05300        2.38800
C          5.32600        1.67300        1.86500
C          4.75600        1.19400        0.68900
O          3.58600        1.78600        0.28600
H          0.93700       -1.63100       -0.35700
H          2.77700       -0.83600        0.56800
H          1.45600        0.29700        0.82300
H          2.15200        1.63000       -1.16500
H          4.34400        1.29200       -2.24000
H          3.31300       -0.12100       -2.49500
H          6.92400       -1.33800        0.01000
H          7.90400       -0.53300        2.14500
H          6.89500        1.41200        3.31800
H          4.87100        2.50900        2.38800
