33
367-93-1.pdb
C          5.31400       -2.25700        1.86200
C          4.93200       -1.29600        2.98400
C          5.31000       -1.89300        4.33900
S          5.79000        0.31600        2.83400
C          5.00000        1.00200        1.32800
O          5.45400        0.27100        0.18500
C          4.85600        0.71800       -1.03800
C          5.24100       -0.25400       -2.15400
O          4.64300        0.11100       -3.38900
C          5.34800        2.14100       -1.31300
O          6.78600        2.17600       -1.38900
C          4.89100        3.04700       -0.16600
O          5.38800        4.37400       -0.37200
C          5.35200        2.50800        1.20400
O          4.76200        3.27000        2.26900
H          4.99500       -3.27800        2.10000
H          6.39600       -2.28000        1.69200
H          4.81800       -1.99100        0.92500
H          3.85000       -1.12500        2.97300
H          6.39200       -2.04900        4.42900
H          4.82700       -2.86700        4.47800
H          4.98400       -1.25100        5.16500
H          3.91500        0.88500        1.44000
H          3.76200        0.71200       -0.94100
H          6.32800       -0.32700       -2.28300
H          4.89900       -1.26300       -1.89800
H          5.23100        0.75600       -3.82100
H          4.97300        2.53000       -2.26500
H          7.13000        1.51900       -0.75500
H          3.79800        3.12700       -0.17600
H          6.33100        4.27900       -0.61500
H          6.43800        2.65300        1.28000
H          3.91500        3.63900        1.96700
