33
36768-62-4.pdb
C          0.91500        0.01800       -0.15100
C          2.41400        0.09500        0.19800
C          2.52100        0.09400        1.72600
C          3.03800        1.34300       -0.45100
C          4.55900        1.35500       -0.61500
N          5.27000        1.85200        0.59600
C          5.12100        0.02800       -1.13100
C          4.56000       -1.25900       -0.50100
C          4.83900       -2.45900       -1.42700
C          5.18400       -1.58800        0.85900
N          3.05800       -1.14600       -0.37900
H          0.38000        0.89500        0.23400
H          0.45000       -0.87200        0.28800
H          0.74900       -0.01900       -1.23300
H          1.88900        0.88000        2.15500
H          3.52500        0.28900        2.09300
H          2.18900       -0.86100        2.15000
H          2.70500        2.24800        0.07300
H          2.62400        1.43100       -1.46800
H          4.80000        2.12200       -1.36200
H          5.21100        1.30200        1.46200
H          4.95600        2.80700        0.84600
H          6.28100        1.97400        0.40900
H          6.21700        0.03100       -1.07400
H          4.88900        0.00000       -2.20600
H          5.91800       -2.60700       -1.55800
H          4.40500       -2.31500       -2.42400
H          4.42600       -3.38600       -1.01500
H          6.24000       -1.86000        0.74100
H          4.67900       -2.43400        1.33600
H          5.17000       -0.75500        1.55800
H          2.70400       -1.97200        0.13800
H          2.65200       -1.30300       -1.32000
