40
36805-97-7.pdb
C          2.62900        1.09600        0.68900
N          2.15400       -0.28500        0.33200
C          0.67000       -0.39400        0.37200
C          2.76600       -0.75200       -0.94700
O          2.36500        0.12700       -1.98900
C          2.61200       -0.21400       -3.36500
C          1.88200       -1.49500       -3.78600
C          2.03000        0.96400       -4.16900
C          4.10200       -0.31400       -3.69400
O          4.17700       -0.79500       -0.86400
C          4.88700       -1.79600       -0.12200
C          4.44800       -3.22700       -0.44800
C          6.35300       -1.61600       -0.54400
C          4.82800       -1.54900        1.39500
H          2.48200        1.21700        1.76400
H          2.04900        1.83000        0.12900
H          3.69300        1.19000        0.45900
H          2.50400       -0.91900        1.03800
H          0.22900        0.32100       -0.32600
H          0.35300       -0.17700        1.39700
H          0.39000       -1.42000        0.11800
H          2.35300       -1.74600       -1.14200
H          0.82700       -1.46300       -3.49600
H          2.32100       -2.38000       -3.31400
H          1.93700       -1.64500       -4.87200
H          1.00600        1.19300       -3.85000
H          2.02000        0.76300       -5.24700
H          2.61600        1.87600       -4.00300
H          4.54900       -1.22500       -3.27700
H          4.65600        0.53700       -3.28300
H          4.27400       -0.34600       -4.77800
H          4.58200       -3.44700       -1.51200
H          3.39100       -3.39400       -0.21600
H          5.02800       -3.95600        0.13000
H          6.49600       -1.88600       -1.59800
H          7.03300       -2.22600        0.05800
H          6.65700       -0.56500       -0.45100
H          3.89000       -1.90100        1.83400
H          4.93300       -0.48500        1.62700
H          5.62100       -2.09800        1.91200
