36
369-07-3.pdb
O          1.20900       -0.02100        0.38200
C          2.60000        0.09800        0.09200
C          2.89300        0.12000       -1.42300
O          2.37100        1.28800       -2.07200
C          0.94700        1.30600       -2.24700
O          0.53800        2.52100       -2.91500
C          1.00700        3.67400       -2.33100
C          1.10600        3.83100       -0.94400
C          1.64900        4.99200       -0.38800
C          2.08100        6.03200       -1.20800
C          1.92900        5.92900       -2.58900
C          1.37800        4.75800       -3.13500
N          1.19400        4.71300       -4.58200
O          1.67400        3.75100       -5.19100
O          0.60900        5.67400       -5.09400
C          0.50700        0.09000       -3.09200
O          1.08400        0.10000       -4.41600
C          0.97100       -1.20500       -2.41300
O          0.66700       -2.33600       -3.24500
C          2.48800       -1.16200       -2.16100
O          2.95400       -2.30600       -1.43700
H          1.12700       -0.04200        1.35200
H          3.11400       -0.74100        0.57100
H          2.94800        1.03000        0.54800
H          3.98400        0.20500       -1.50200
H          0.41700        1.26300       -1.29500
H          0.76800        3.05800       -0.26100
H          1.73500        5.08400        0.69500
H          2.52100        6.92500       -0.77000
H          2.24300        6.75200       -3.22800
H         -0.57900        0.08800       -3.23400
H          1.65400        0.89300       -4.47900
H          0.42900       -1.37400       -1.47900
H          0.82900       -2.03100       -4.16300
H          2.99700       -1.18500       -3.13400
H          2.19500       -2.90800       -1.33100
