21
3694-57-3.pdb
C          1.31700        0.19400       -0.72300
O          2.47300       -0.07400        0.06300
C          3.09900       -1.27000       -0.16300
C          2.68700       -2.24700       -1.06800
C          3.41600       -3.43300       -1.21200
C          4.56300       -3.66700       -0.44200
C          5.33700       -4.95600       -0.58700
N          6.37100       -4.85300       -1.62700
C          7.01800       -5.82300       -1.77100
S          7.89800       -7.13300       -1.97500
C          4.98200       -2.67600        0.45400
C          4.25200       -1.49100        0.59600
H          0.96300        1.19900       -0.47500
H          0.51300       -0.51200       -0.48900
H          1.55300        0.18200       -1.79300
H          1.80100       -2.11900       -1.68100
H          3.07600       -4.17500       -1.93100
H          4.63100       -5.76500       -0.82300
H          5.78700       -5.20700        0.38300
H          5.88000       -2.81800        1.05200
H          4.58500       -0.73400        1.30200
