18
3694-52-8.pdb
N         -1.84400        1.31500        0.09100
C         -0.59500        0.65200       -0.00600
C          0.58500        1.39600        0.10000
C          1.82600        0.76300        0.06600
C          1.89300       -0.62600       -0.02400
C          0.71100       -1.39000       -0.06000
C         -0.55200       -0.76500       -0.00000
N         -1.79200       -1.44500       -0.13700
N          0.85000       -2.85700       -0.07200
O          1.99700       -3.32700       -0.10400
O         -0.17900       -3.55100       -0.02400
H         -1.80000        2.28400       -0.20900
H         -2.54800        0.80200       -0.43600
H          0.54600        2.48000        0.18100
H          2.73900        1.35200        0.11300
H          2.87400       -1.09800       -0.04700
H         -1.71900       -2.44600        0.06400
H         -2.50600       -1.00500        0.43900
