38
369403-08-7.pdb
C          2.74800       -2.76600        0.18400
C          2.49800       -1.24600        0.24700
C          2.93000       -0.53600       -1.04000
C          0.98200       -1.04400        0.42400
O          3.11700       -0.64700        1.42000
C          4.46500       -0.79600        1.57700
O          5.19000       -1.33900        0.76300
N          4.85000       -0.33800        2.80800
C          6.30400       -0.32200        3.15800
C          6.86100       -1.76500        3.20800
C          6.23100       -2.58300        4.33500
C          6.48600       -1.91800        5.68200
O          5.85800       -2.67000        6.72000
C          5.95800       -0.48600        5.70300
C          6.50400        0.34300        4.54600
C          7.15500        0.65300        2.24300
O          6.52300        1.68700        1.85800
O          8.37000        0.34900        2.07500
H          2.19600       -3.22200       -0.64400
H          2.44300       -3.24600        1.11500
H          3.80000       -3.01500        0.03400
H          2.47200       -0.99900       -1.92300
H          4.01300       -0.54900       -1.18700
H          2.63700        0.52200       -1.02000
H          0.42300       -1.43800       -0.43400
H          0.73500        0.01900        0.53700
H          0.62200       -1.54500        1.32700
H          4.32300        0.47900        3.07900
H          7.94700       -1.75500        3.35200
H          6.70100       -2.29400        2.26300
H          6.64200       -3.60000        4.33800
H          5.15200       -2.70500        4.17100
H          7.56200       -1.91600        5.88900
H          4.90200       -2.64300        6.54500
H          6.22500       -0.01400        6.65800
H          4.85900       -0.49000        5.67800
H          7.57500        0.50900        4.73000
H          6.03200        1.33500        4.57300
