39
37033-95-7.pdb
C          6.35400       -1.09000       -0.19200
C          5.37700       -0.00100       -0.60300
O          5.33800        0.97800        0.43800
C          4.49800        0.71300        1.47300
O          3.57700       -0.09100        1.46200
C          4.94300        1.43500        2.63400
N          4.37400        1.30800        3.88400
C          5.10500        2.00700        4.81900
C          4.95500        2.12400        6.20600
C          5.91100        2.88600        6.89400
C          6.96900        3.50500        6.22600
O          7.88500        4.15700        7.01200
C          9.15000        4.37800        6.37800
C         10.22200        4.66000        7.39900
C         10.43400        3.77400        8.45900
C         11.49000        3.97300        9.34500
C         12.34300        5.06300        9.17500
C         12.13800        5.95400        8.12400
C         11.08300        5.75400        7.23600
C          7.05900        3.42200        4.83400
C          6.13300        2.64200        4.12900
C          6.01400        2.29800        2.76600
H          6.47000       -1.83700       -0.98000
H          6.01600       -1.59000        0.72200
H          7.33500       -0.65600        0.03600
H          4.38400       -0.40500       -0.82200
H          5.74000        0.49900       -1.50700
H          3.57200        0.72700        4.08700
H          4.15000        1.62800        6.73800
H          5.83800        2.97900        7.97600
H          9.05700        5.22400        5.68500
H          9.47800        3.48700        5.82400
H          9.78100        2.91000        8.58700
H         11.65300        3.27500       10.16100
H         13.17200        5.21500        9.86100
H         12.80600        6.80100        7.98900
H         10.94500        6.44800        6.40900
H          7.84000        3.91400        4.26900
H          6.68200        2.59700        1.96800
