22
3704-28-7.pdb
C          1.00900       -1.76100       -0.07200
O          2.42900       -1.69800       -0.23900
C          3.07600       -1.13300        0.80700
O          2.54300       -0.56100        1.74700
C          4.55000       -1.20900        0.65400
C          5.26100       -0.08300        1.11200
C          6.65700       -0.07000        1.11900
C          7.35700       -1.18500        0.67800
C          6.66200       -2.30400        0.21200
C          5.25500       -2.33300        0.18500
S          4.52500       -3.87700       -0.35900
C          4.47200       -3.55900       -2.14500
H          0.57900       -2.13700       -1.00400
H          0.59200       -0.77200        0.12900
H          0.76100       -2.46200        0.73200
H          4.72300        0.78800        1.48600
H          7.19100        0.80100        1.48800
H          8.44400       -1.19600        0.71100
H          7.23600       -3.17400       -0.10700
H          4.33700       -4.50900       -2.67200
H          5.40000       -3.10100       -2.49800
H          3.63200       -2.90500       -2.39300
