20
37052-78-1.pdb
C          1.18300       -0.13900       -0.27900
O          2.55900        0.03400        0.05300
C          3.07600       -0.92500        0.88500
C          4.12600       -0.48500        1.72800
C          4.74000       -1.35000        2.64300
C          4.28100       -2.64400        2.66600
N          4.67000       -3.71800        3.46400
C          3.89700       -4.83200        3.11000
S          3.97700       -6.33200        3.78600
N          3.03500       -4.43300        2.08300
C          3.26600       -3.08500        1.81700
C          2.64900       -2.25700        0.91000
H          0.85400        0.75200       -0.82200
H          0.57000       -0.23000        0.62400
H          1.03700       -0.99800       -0.94100
H          4.44900        0.55200        1.67000
H          5.53400       -1.00700        3.29500
H          5.37700       -3.70800        4.18300
H          2.35800       -5.02900        1.63000
H          1.88200       -2.64100        0.25300
