15
3721-95-7.pdb
O          1.78200       -1.05300       -0.62700
C          2.36000       -0.00300        0.01900
O          2.26100        0.10000        1.23800
C          3.11000        0.98200       -0.92400
C          4.62500        1.19000       -0.66100
C          4.42700        2.67500       -1.01300
C          2.94200        2.50100       -0.64500
H          1.92700       -1.04400       -1.59100
H          2.92100        0.76100       -1.98400
H          5.29700        0.63800       -1.32400
H          4.93200        1.01900        0.37700
H          4.59500        2.90400       -2.07100
H          4.98600        3.38600       -0.40000
H          2.23600        3.02300       -1.29600
H          2.71400        2.75000        0.39700
