48
373-49-9.pdb
C          4.19300       -6.86700       -4.03600
C          5.29000       -5.95000       -3.52600
C          5.30700       -4.64200       -4.31000
C          6.40300       -3.71700       -3.80300
C          6.41500       -2.40900       -4.58900
C          7.51600       -1.50600       -4.05400
C          7.55800       -0.17900       -4.74500
C          8.42600        0.78900       -4.41700
C          9.48300        0.68200       -3.35000
C         10.89700        0.74100       -3.92600
C         11.18800        2.09100       -4.57600
C         12.61400        2.16200       -5.10000
C         12.86000        3.51700       -5.75800
C         14.28100        3.60400       -6.29400
C         14.54300        4.95600       -6.94700
C         15.95700        5.04400       -7.47400
O         16.21100        6.24300       -8.05600
O         16.79700        4.16500       -7.40300
H          4.18700       -7.80300       -3.47100
H          4.34700       -7.10500       -5.09400
H          3.21100       -6.39500       -3.93000
H          6.25900       -6.45300       -3.61700
H          5.12900       -5.74500       -2.46100
H          4.33500       -4.14200       -4.21800
H          5.46600       -4.84900       -5.37500
H          7.37900       -4.21100       -3.89200
H          6.24700       -3.50500       -2.73700
H          5.44200       -1.91100       -4.49900
H          6.57900       -2.61300       -5.65400
H          8.48300       -2.01000       -4.17400
H          7.34700       -1.34200       -2.98300
H          6.84600        0.00800       -5.54700
H          8.36700        1.73000       -4.96000
H          9.39100       -0.25000       -2.78300
H          9.33600        1.49200       -2.62700
H         11.04100       -0.06600       -4.65600
H         11.61400        0.56500       -3.11500
H         11.01900        2.89100       -3.84600
H         10.50200        2.26400       -5.41300
H         12.78200        1.36000       -5.82900
H         13.32200        2.01000       -4.27700
H         12.68600        4.31800       -5.02800
H         12.14400        3.66600       -6.57600
H         14.44900        2.80100       -7.02300
H         14.99400        3.44200       -5.47600
H         14.39700        5.75600       -6.21400
H         13.85200        5.10500       -7.78300
H         15.44900        6.85300       -8.04300
