26
3736-77-4.pdb
O          1.01600       -0.03800        0.03200
C          2.43800       -0.03400        0.03300
C          2.95900        1.01300       -0.95600
O          4.40200        1.05700       -0.92500
C          4.90700        0.56800       -2.17600
C          3.74200        0.00500       -2.97900
O          3.72700       -1.40900       -2.70600
C          4.99300       -1.73000       -2.31100
N          5.40600       -2.94600       -2.26700
C          6.72200       -3.14200       -1.89100
O          7.24500       -4.24900       -1.81300
C          7.56900       -1.94400       -1.57600
C          7.01100       -0.73000       -1.63100
N          5.70300       -0.60900       -1.99700
C          2.55100        0.74000       -2.40800
O          2.40300        1.96600       -3.14500
H          0.72700       -0.73400        0.65000
H          2.80100       -1.03700       -0.20500
H          2.78300        0.20800        1.04500
H          2.59400        1.99800       -0.63900
H          5.42600        1.38200       -2.69000
H          3.87100        0.14600       -4.05800
H          8.60300       -2.12400       -1.31500
H          7.54900        0.18600       -1.41200
H          1.61600        0.18000       -2.49900
H          2.89800        2.67800       -2.70100
