20
3740-52-1.pdb
O          2.46700       -1.80000       -3.20800
C          2.64900       -0.59500       -2.62600
O          2.50000        0.45100       -3.24200
C          3.06400       -0.65500       -1.17400
C          4.56100       -0.60600       -0.95800
C          5.13600        0.67600       -0.81800
C          6.49500        0.84300       -0.54200
C          7.31900       -0.26700       -0.40600
C          6.79200       -1.54600       -0.57800
C          5.42400       -1.72300       -0.86800
N          4.96300       -3.10900       -1.08100
O          3.82900       -3.28500       -1.55400
O          5.74000       -4.03100       -0.79800
H          2.69600       -2.56100       -2.62600
H          2.59100       -1.49800       -0.66100
H          2.59900        0.21200       -0.68300
H          4.51700        1.56900       -0.91900
H          6.90600        1.84400       -0.43000
H          8.37500       -0.13800       -0.17700
H          7.46600       -2.39700       -0.48500
