16
37418-88-5.pdb
O          1.04400       -0.00600        0.03100
C          2.40100        0.03400        0.02600
C          3.08200        1.25500        0.02300
C          4.48900        1.28400        0.01700
C          5.22100        0.09500        0.01300
C          4.50900       -1.09300        0.01600
C          5.00300       -2.45000        0.01300
O          6.16700       -2.79200        0.00700
O          3.90300       -3.24500        0.01700
C          2.74200       -2.52800        0.02300
O          1.62100       -2.99000        0.02800
C          3.14100       -1.13300        0.02200
H          0.67900        0.89500        0.03000
H          2.54000        2.19700        0.02600
H          5.01000        2.24000        0.01500
H          6.30700        0.09700        0.00700
