10
3741-38-6.pdb
O          1.67900       -0.11300       -0.68400
S          0.67100        0.08100        0.40800
O         -0.36500       -1.15900        0.31400
C         -1.46400       -0.78300       -0.50600
C         -1.67200        0.67600       -0.19000
O         -0.35900        1.21700       -0.11100
H         -2.34200       -1.39100       -0.27000
H         -1.19000       -0.94100       -1.55500
H         -2.16500        0.81600        0.77900
H         -2.25000        1.19000       -0.96300
