25
37466-90-3.pdb
C          1.57800       -0.81500       -0.99900
C          2.48600        0.26300       -0.43400
O          3.32800        0.73000       -1.49600
C          4.47700        0.03300       -1.67500
O          4.97700       -0.74600       -0.88000
C          4.98000        0.23200       -3.06000
C          4.32900        1.06100       -3.98300
C          4.78400        1.13400       -5.30000
C          5.90700        0.40500       -5.70100
N          6.30900        0.41800       -7.05500
C          6.49300       -0.51500       -4.80400
N          7.61700       -1.27100       -5.20800
C          6.08000       -0.53300       -3.47100
H          0.88000       -1.18400       -0.24400
H          2.16600       -1.65900       -1.37800
H          1.01000       -0.42500       -1.85000
H          3.06500       -0.10400        0.42100
H          1.88900        1.11300       -0.08700
H          3.45600        1.64200       -3.69600
H          4.26000        1.77000       -6.00800
H          6.05800        1.28200       -7.52700
H          7.31000        0.24700       -7.11600
H          7.51100       -1.54900       -6.18100
H          7.77000       -2.08300       -4.61500
H          6.57700       -1.18600       -2.75800
