36
37493-70-2.pdb
C          0.99300       -0.02500       -0.02400
C          2.51300       -0.00400       -0.03600
C          3.03700        1.14400       -0.89600
C          4.56100        1.17500       -0.90800
C          5.07900        2.33700       -1.75600
C          6.60600        2.34200       -1.76700
C          7.18900        3.45100       -2.65000
O          6.77200        4.72400       -2.15900
C          8.72300        3.42700       -2.69000
C          9.27800        2.13000       -3.27800
C         10.80300        2.12000       -3.32100
C         11.30900        0.79900       -3.88100
H          0.63000       -0.84900        0.59700
H          0.59800       -0.15700       -1.03500
H          0.59500        0.91100        0.38200
H          2.88600       -0.96000       -0.42100
H          2.88300        0.09900        0.99100
H          2.65400        2.09700       -0.51100
H          2.66500        1.03500       -1.92200
H          4.94500        0.22700       -1.30400
H          4.93900        1.27200        0.11800
H          4.70000        3.28400       -1.35700
H          4.70400        2.23900       -2.78300
H          6.94100        1.36100       -2.11700
H          6.96700        2.46600       -0.73700
H          6.79700        3.35700       -3.66900
H          7.06600        4.79900       -1.23500
H          9.12000        3.58500       -1.67900
H          9.07400        4.28300       -3.28100
H          8.87800        1.98700       -4.28900
H          8.95400        1.27300       -2.67900
H         11.20500        2.26100       -2.31100
H         11.17000        2.94600       -3.94000
H         10.97100       -0.04100       -3.26700
H         12.40400        0.78700       -3.90200
H         10.94500        0.64300       -4.90200
