24
3751-48-2.pdb
C          2.51700       -0.02100       -0.00700
C          1.01700        0.02900        0.00500
C          0.34000        1.25200       -0.00400
C         -1.05300        1.28300        0.01500
C         -1.78300        0.09500        0.03300
C         -1.13000       -1.14300        0.01200
C         -1.87500       -2.45900       -0.00200
C         -3.23900       -2.47000       -0.69100
C         -3.31000       -2.17000       -2.17300
O         -2.16400       -1.89500       -2.81700
O         -4.37900       -2.19100       -2.77400
C          0.27600       -1.16000        0.02000
H          2.95200        0.98400        0.01100
H          2.86900       -0.52500       -0.91200
H          2.88300       -0.56000        0.87300
H          0.89200        2.18900       -0.01900
H         -1.57100        2.23900        0.01600
H         -2.86800        0.16600        0.05600
H         -2.00600       -2.77100        1.04100
H         -1.24600       -3.22000       -0.48200
H         -3.92400       -1.78200       -0.18300
H         -3.65200       -3.48100       -0.57200
H         -1.36200       -1.79800       -2.27400
H          0.80700       -2.11100        0.03400
