41
37529-29-6.pdb
C          0.91500       -0.11400       -0.01000
C          2.43300       -0.10200        0.02000
C          2.94900        0.33500        1.38900
C          4.47300        0.34400        1.42700
C          4.98800        0.77400        2.80100
C          6.51200        0.79600        2.80300
C          7.08000        1.26500        4.14200
C          8.61200        1.27200        4.15100
C          9.20400        2.24200        3.12400
C         10.70800        2.19300        3.10000
C         11.36900        1.27800        2.27600
C         12.76400        1.23000        2.25000
C         13.52100        2.11800        3.01600
N         14.91300        1.98300        3.08100
C         12.85700        2.98300        3.89100
C         11.46100        3.03700        3.92000
H          0.55600       -0.43100       -0.99300
H          0.51300        0.88400        0.19600
H          0.51600       -0.80600        0.73900
H          2.80700        0.57700       -0.75600
H          2.80900       -1.10400       -0.21900
H          2.56700       -0.34300        2.16100
H          2.57100        1.33800        1.62100
H          4.85600        1.02800        0.65900
H          4.85700       -0.65500        1.18600
H          4.62200        0.08500        3.57100
H          4.60300        1.77200        3.04300
H          6.83800        1.46400        2.00000
H          6.89800       -0.20400        2.57100
H          6.72800        0.59900        4.94000
H          6.70600        2.26900        4.37800
H          8.97900        0.25400        3.96900
H          8.95500        1.54900        5.15700
H          8.86600        3.26400        3.33400
H          8.85200        2.01100        2.11300
H         10.80200        0.58900        1.65300
H         13.25500        0.49200        1.62200
H         15.32100        1.59700        2.23600
H         15.38800        2.82700        3.38700
H         13.42300        3.62700        4.55700
H         10.96900        3.73300        4.59500
