36
37535-58-3.pdb
C         11.20100       -1.28500        1.89300
C         10.12400       -1.14300        0.81000
C         10.23700        0.18700        0.05100
C         10.32200       -2.28700       -0.20100
O          8.79400       -1.31300        1.36000
C          8.34100       -0.44400        2.30400
O          8.95300        0.53700        2.72300
N          7.07100       -0.68800        2.71800
C          6.37200       -1.98800        2.62500
C          4.87300       -1.76700        2.34200
C          4.53000       -0.97400        1.09100
C          5.35200       -0.94400       -0.03800
C          4.97500       -0.16800       -1.12400
N          3.83200        0.54900       -1.18500
C          3.03600        0.48400       -0.09700
C          3.33300       -0.25100        1.04200
C          6.54600       -2.82800        3.93400
O          5.65700       -2.66600        4.81900
O          7.58800       -3.54400        3.97100
H         12.20600       -1.18600        1.46900
H         11.12800       -2.26200        2.38400
H         11.10200       -0.53500        2.68200
H         11.21400        0.29100       -0.43100
H         10.10500        1.05200        0.70700
H          9.45900        0.26000       -0.71700
H         11.30800       -2.23500       -0.67800
H          9.55900       -2.26100       -0.98600
H         10.23200       -3.26400        0.28800
H          6.81300       -0.12500        3.51700
H          6.81400       -2.57600        1.81400
H          4.37000       -2.74000        2.26800
H          4.42200       -1.24000        3.19500
H          6.28700       -1.49100       -0.07600
H          5.61300       -0.10000       -2.00000
H          2.11800        1.06200       -0.16100
H          2.64700       -0.25000        1.88300
