38
37558-29-5.pdb
C          1.05000       -0.03700       -0.00300
C          2.59100       -0.04000        0.06000
C          2.99800        0.05000        1.53900
C          3.14200       -1.29900       -0.52700
C          4.16500       -1.04200       -1.35400
C          4.85500       -2.05400       -2.17000
O          5.86600       -1.86400       -2.82900
O          4.09100       -3.18100       -2.19100
N          3.93800       -3.68800       -3.48100
C          3.88800       -5.02600       -3.68300
O          4.10600       -5.92800       -2.88600
C          3.42100       -5.24100       -5.09700
C          2.90000       -3.87800       -5.53500
C          3.21800       -2.97300       -4.38500
O          2.80700       -1.82700       -4.28500
C          4.45200        0.43000       -1.42300
C          4.65900        0.98600       -2.85000
C          5.71900        0.77000       -0.61400
N          3.25900        1.07100       -0.71600
O          2.31600        1.41400       -1.78400
H          0.62900       -0.83600        0.62000
H          0.67100       -0.20700       -1.01900
H          0.64100        0.91300        0.36000
H          2.53900       -0.75900        2.12100
H          2.67300        1.00000        1.97800
H          4.07700       -0.03400        1.69100
H          2.73000       -2.27600       -0.31300
H          2.62000       -5.98500       -5.12100
H          4.25500       -5.57300       -5.72000
H          1.81400       -3.89700       -5.67300
H          3.38400       -3.52100       -6.44700
H          5.60700        0.64800       -3.28300
H          4.69200        2.08300       -2.84100
H          3.86500        0.67700       -3.53800
H          6.61900        0.39100       -1.11500
H          5.71600        0.33700        0.39000
H          5.83600        1.85500       -0.50800
H          2.27100        2.38500       -1.69900
