38
37593-03-6.pdb
C          0.88100       -0.14200        0.06700
C          2.40000       -0.11200        0.05100
C          2.92300        1.30400       -0.19500
C          4.45000        1.33000       -0.21300
C          4.98800        2.74000       -0.46000
C          6.51800        2.73800       -0.47100
C          7.08300        4.13900       -0.70800
C          8.59400        4.14300       -0.73700
C          9.27600        3.90900       -1.93700
C         10.67400        3.91100       -1.96900
C         11.40700        4.15400       -0.80100
C         10.73300        4.36300        0.40500
C          9.33300        4.35300        0.43500
C         12.89300        4.15600       -0.89600
C         13.70300        4.99100        0.06300
O         13.44400        3.49300       -1.77300
H          0.52300       -1.16100        0.24400
H          0.47300        0.20100       -0.88900
H          0.48600        0.50100        0.86000
H          2.76600       -0.78600       -0.73200
H          2.77900       -0.48900        1.00700
H          2.55200        1.97400        0.58900
H          2.53600        1.67800       -1.15100
H          4.81900        0.65500       -0.99700
H          4.83400        0.95300        0.74300
H          4.62300        3.41700        0.32300
H          4.61100        3.11700       -1.41700
H          6.87500        2.05600       -1.25300
H          6.88900        2.34600        0.48400
H          6.73200        4.82600        0.07400
H          6.70400        4.54300       -1.65500
H          8.72600        3.72300       -2.85600
H         11.18700        3.72600       -2.90900
H         11.27200        4.51400        1.33500
H          8.82100        4.50700        1.38400
H         13.08600        5.66800        0.65800
H         14.39500        5.61100       -0.51600
H         14.26700        4.33400        0.72900
