44
37593-05-8.pdb
C          0.91800       -0.10300       -0.01800
C          2.43400       -0.10200       -0.01000
C          2.96100       -0.32200        1.40300
C          4.48100       -0.32300        1.41700
C          4.98900       -0.54600        2.83300
C          6.50400       -0.55000        2.84700
C          7.02600       -0.76600        4.25900
C          8.54800       -0.76100        4.26600
C          9.07200        0.57600        3.75700
C         10.56900        0.63000        3.73200
C         11.28400        0.21000        2.60500
C         12.67600        0.29400        2.59500
C         13.36800        0.81000        3.70300
C         12.64800        1.23300        4.82400
C         11.25700        1.11800        4.84300
C         14.85300        0.84900        3.66200
C         15.62400        1.90600        4.40800
O         15.45800       -0.00800        2.99800
H          0.54300        0.05600       -1.03300
H          0.52500        0.69500        0.62200
H          0.52700       -1.05800        0.34800
H          2.80200        0.85400       -0.40100
H          2.80500       -0.89000       -0.67500
H          2.58900       -1.27700        1.79400
H          2.58700        0.46700        2.06600
H          4.86000        0.63200        1.03200
H          4.86300       -1.11200        0.75800
H          4.61800       -1.50000        3.22100
H          4.61600        0.24500        3.49500
H          6.85200        0.40700        2.45000
H          6.89100       -1.33300        2.18400
H          6.65700       -1.72300        4.64800
H          6.64900        0.02100        4.92400
H          8.92500       -1.57900        3.64000
H          8.90300       -0.95200        5.28600
H          8.69400        1.39600        4.38100
H          8.70800        0.77700        2.74600
H         10.76200       -0.17600        1.73200
H         13.22000       -0.03400        1.71100
H         13.12800        1.65000        5.69800
H         10.71500        1.43100        5.73500
H         14.99500        2.65100        4.90000
H         16.26700        2.43500        3.69900
H         16.24000        1.41800        5.17000
