17
3759-28-2.pdb
N          1.25900        0.69400       -0.26000
C          2.38000        0.42000       -0.14000
C          3.80600        0.07500       -0.00800
C          4.29600       -0.72600       -1.19800
C          4.83200       -0.04300       -2.30500
C          5.19200       -0.73400       -3.46300
C          5.01900       -2.11300       -3.53700
C          4.51000       -2.81000       -2.44100
C          4.15500       -2.12800       -1.26900
C          3.66400       -2.89000       -0.15700
N          3.29000       -3.48500        0.76700
H          3.98300       -0.47100        0.92500
H          4.39800        0.99500        0.08100
H          4.95600        1.03900       -2.28300
H          5.59400       -0.19100       -4.31600
H          5.27700       -2.64600       -4.44900
H          4.38400       -3.88900       -2.51100
