26
37669-78-6.pdb
C          1.95400       -1.31300       -1.36600
C          2.48800       -0.21300       -0.47200
O          3.12300        0.74000       -1.33200
C          4.47200        0.67900       -1.41600
O          5.21300        0.03300       -0.69400
C          4.88500        1.39700       -2.65000
C          4.33200        2.63800       -3.03500
C          3.34200        3.42300       -2.21800
C          4.70100        3.17600       -4.27600
C          5.61700        2.50100       -5.05900
N          6.18900        1.33800       -4.69800
C          5.82400        0.79200       -3.50500
C          6.49000       -0.51900       -3.19300
H          1.44500       -2.08600       -0.78800
H          2.76900       -1.76900       -1.94000
H          1.25400       -0.89600       -2.09900
H          3.16300       -0.61300        0.29300
H          1.66400        0.29300        0.04300
H          3.30100        3.11200       -1.17200
H          2.34200        3.33300       -2.65500
H          3.62500        4.48200       -2.20700
H          4.28000        4.11200       -4.62900
H          5.92300        2.88900       -6.02600
H          7.12900       -0.83300       -4.02600
H          5.74700       -1.30700       -3.03700
H          7.13100       -0.42600       -2.31100
