36
3767-28-0.pdb
O          3.34600       -1.26200        2.21200
C          3.95200       -0.01600        1.86600
C          2.97600        0.82300        1.02900
O          1.86800        1.20800        1.86500
C          0.87300        1.94800        1.15300
O          0.31800        1.22600        0.04100
C         -0.32900        0.05500        0.33900
C         -0.96200       -0.21700        1.55400
C         -1.58800       -1.44800        1.77000
C         -1.58400       -2.41400        0.75700
C         -0.96500       -2.14800       -0.47200
C         -0.35000       -0.90800       -0.67700
N         -2.22900       -3.71300        0.99500
O         -2.77000       -3.88600        2.09500
O         -2.19800       -4.54700        0.08200
C          1.49200        3.28200        0.68200
O          0.54900        4.14600        0.03900
C          2.67700        2.99400       -0.25100
O          3.34800        4.20200       -0.64800
C          3.68200        2.05700        0.44600
O          4.72100        1.64900       -0.45000
H          4.01300       -1.77200        2.70200
H          4.86600       -0.23700        1.30700
H          4.21000        0.50200        2.79600
H          2.60800        0.18100        0.21900
H          0.06800        2.21500        1.84600
H         -0.98600        0.50200        2.36500
H         -2.06600       -1.63300        2.72700
H         -0.94900       -2.89000       -1.26800
H          0.13800       -0.70500       -1.62800
H          1.86400        3.82700        1.56000
H         -0.31600        4.04300        0.47000
H          2.32100        2.54700       -1.18700
H          3.34800        4.81900        0.10300
H          4.17100        2.61900        1.25200
H          4.31100        1.40400       -1.29900
