27
37687-24-4.pdb
C          1.74400       -1.51400        0.06900
C          2.51500       -0.23600       -0.21200
O          3.28600       -0.44500       -1.39900
C          4.49500       -1.03900       -1.19900
O          5.07400       -1.13300       -0.12600
C          4.93800       -1.64600       -2.41000
N          6.07100       -2.40600       -2.46300
N          6.31600       -2.94200       -3.66400
C          5.29700       -2.51700       -4.43600
C          4.40800       -1.70500       -3.68500
C          5.12800       -2.92700       -5.83600
O          4.15000       -2.61800       -6.50900
O          6.12500       -3.76100       -6.25600
C          5.79300       -4.61300       -7.35400
C          5.08200       -5.83500       -6.79900
H          1.07400       -1.39500        0.92300
H          2.42900       -2.34500        0.27100
H          1.15800       -1.80200       -0.81100
H          3.13900        0.05600        0.64100
H          1.82200        0.58700       -0.40900
H          6.70300       -2.61600       -1.69500
H          3.48500       -1.25400       -4.02800
H          6.73100       -4.91200       -7.83300
H          5.18800       -4.09700       -8.10700
H          5.71300       -6.33500       -6.05500
H          4.83600       -6.54500       -7.59100
H          4.16000       -5.54900       -6.28100
