39
37682-29-4.pdb
C          6.85700        3.83700       -1.97200
C          6.36600        2.56800       -1.29600
C          6.88900        1.32700       -2.01000
C          6.38900        0.04700       -1.34000
C          6.93300       -1.17600       -2.07000
C          6.47500       -2.48300       -1.42400
C          7.01900       -3.71400       -2.15300
C          8.54300       -3.77900       -2.11000
O          8.98700       -4.94700       -2.80000
C         10.34400       -5.13200       -2.84000
C         11.22700       -4.65200       -1.86500
C         12.58800       -4.97700       -1.91200
C         13.08700       -5.79100       -2.92500
C         12.23200       -6.26200       -3.91900
C         10.87500       -5.91400       -3.87000
N         10.02400       -6.34200       -4.96000
O          9.53200       -5.46400       -5.68000
O          9.91300       -7.56700       -5.13400
H          6.47000        4.71800       -1.45100
H          6.52100        3.88100       -3.01300
H          7.95100        3.88800       -1.96300
H          5.27000        2.56100       -1.29200
H          6.69600        2.56400       -0.25100
H          7.98700        1.33800       -2.01000
H          6.56900        1.34000       -3.05900
H          5.29300        0.02600       -1.34100
H          6.71600        0.02700       -0.29300
H          8.02600       -1.11100       -2.06400
H          6.61400       -1.15700       -3.11900
H          5.38000       -2.52700       -1.42200
H          6.79600       -2.51000       -0.37400
H          6.66900       -3.73200       -3.19200
H          6.61200       -4.62000       -1.68600
H          8.84100       -3.81000       -1.05800
H          8.98400       -2.90600       -2.60100
H         10.89200       -4.04000       -1.03300
H         13.25500       -4.59900       -1.13800
H         14.14300       -6.05300       -2.94000
H         12.62000       -6.88600       -4.72000
