20
37699-43-7.pdb
C          0.91400        0.01300       -0.01400
C          2.42000        0.05100       -0.07500
C          3.14600        1.26500        0.01600
C          2.52900        2.60800        0.27100
N          4.54200        1.27600       -0.16100
O          5.20900        2.35700       -0.14600
C          5.21000        0.07600       -0.36300
C          4.54500       -1.14100       -0.38100
C          3.16000       -1.14000       -0.22700
N          2.49800       -2.44000       -0.20900
O          1.83700       -2.72400        0.79700
O          2.67300       -3.17000       -1.19300
H          0.45700        0.98900       -0.19100
H          0.57700       -0.35400        0.96000
H          0.52100       -0.63700       -0.80400
H          1.51900        2.54100        0.67900
H          2.49700        3.19000       -0.65500
H          3.11200        3.15900        1.01800
H          6.27700        0.20000       -0.48500
H          5.10400       -2.06500       -0.51400
