25
3770-50-1.pdb
C          6.37600       -1.18000       -0.03000
C          5.41200       -0.18900       -0.65900
O          5.38700        0.98400        0.16100
C          4.53200        0.94500        1.21800
O          3.58900        0.17800        1.35000
C          4.98700        1.86600        2.22600
N          4.39400        1.97500        3.46300
C          5.11100        2.82300        4.27400
C          4.91500        3.18100        5.61300
C          5.83200        4.07100        6.18300
C          6.89800        4.58000        5.44400
C          7.07900        4.21100        4.10800
C          6.17000        3.31700        3.51400
C          6.07100        2.72700        2.22900
H          6.49200       -2.07100       -0.65200
H          6.02600       -1.48600        0.96200
H          7.35800       -0.71600        0.11600
H          4.41400       -0.62000       -0.79300
H          5.77800        0.11100       -1.64600
H          3.57800        1.44900        3.74800
H          4.09000        2.78200        6.19400
H          5.71300        4.36700        7.22300
H          7.60100        5.26700        5.90800
H          7.91700        4.60200        3.53800
H          6.75600        2.87300        1.40300
