12
37718-11-9.pdb
O          1.31300       -0.44300       -0.36900
C          2.48400        0.08400        0.07200
O          2.87200        1.18100       -0.30300
C          3.22400       -0.74200        1.00800
C          2.94600       -2.00900        1.48900
N          3.97000       -2.33200        2.33700
N          4.89100       -1.36700        2.44900
C          4.44400       -0.40500        1.64000
H          1.10900       -1.30300        0.03400
H          2.14400       -2.71100        1.31700
H          4.10400       -3.19000        2.86400
H          5.01800        0.50900        1.53700
