27
3777-70-6.pdb
C          1.05200       -0.04000        0.03400
C          2.57300       -0.03100        0.02400
C          3.11200        0.64800       -1.23300
C          4.64200        0.66800       -1.25600
C          5.15400        1.35100       -2.52500
C          6.68200        1.38300       -2.57400
C          7.16200        2.04000       -3.81600
O          7.32800        3.39200       -3.76500
C          7.76200        3.78400       -4.98900
C          7.87800        2.70200       -5.82900
C          7.48800        1.57100       -5.07200
H          0.68000       -0.53000        0.93900
H          0.65800       -0.58200       -0.83200
H          0.65300        0.97900        0.01000
H          2.94000       -1.06200        0.08000
H          2.93500        0.49300        0.91700
H          2.73300        1.67600       -1.28600
H          2.74000        0.12100       -2.12000
H          5.02500       -0.35900       -1.20800
H          5.01800        1.19700       -0.37300
H          4.76100        2.37500       -2.57400
H          4.76600        0.82300       -3.40600
H          7.07800        0.36200       -2.52800
H          7.07400        1.91600       -1.70100
H          7.94000        4.84500       -5.10300
H          8.20300        2.72700       -6.86000
H          7.44600        0.54200       -5.39900
