32
37784-17-1.pdb
C          3.51300       -1.10900        0.87100
C          2.84500       -0.00700        0.04400
C          3.01600       -0.21700       -1.46800
C          1.33900       -0.02800        0.35100
O          3.32300        1.30300        0.45600
C          4.63300        1.62700        0.27300
O          5.46900        0.90800       -0.25000
N          4.91000        2.90600        0.69900
C          6.27300        3.40500        0.69600
C          6.40300        4.13000        2.02200
C          5.01000        4.70700        2.24800
C          4.05500        3.69000        1.60600
C          2.92300        4.43100        0.88500
O          2.89900        4.23600       -0.45500
O          2.12600        5.16700        1.44900
H          3.12100       -2.09900        0.61300
H          3.34500       -0.93900        1.94100
H          4.59800       -1.13700        0.73100
H          2.58000       -1.16900       -1.79000
H          4.06400       -0.22000       -1.77800
H          2.53100        0.59200       -2.02700
H          0.89400       -1.00000        0.11000
H          0.80700        0.74200       -0.22300
H          1.14700        0.18600        1.40800
H          6.36300        4.10300       -0.14400
H          7.01500        2.61100        0.58100
H          7.18300        4.89700        2.00600
H          6.64200        3.41600        2.81900
H          4.93600        5.69200        1.77000
H          4.80000        4.84400        3.31400
H          3.61800        3.01300        2.34700
H          3.61000        3.61900       -0.72100
