30
3779-29-1.pdb
C          1.27500       -0.00600        0.85600
C          2.51700       -0.56700        0.18300
O          3.54400       -0.65600        1.17700
C          4.32000        0.45800        1.34400
O          4.41600        1.34200        0.49600
C          4.89700        0.53700        2.78200
C          4.11500       -0.20800        3.92100
C          4.30200        1.03000        4.81000
C          4.52200        1.85700        3.53800
C          6.38800        0.11500        2.67000
O          6.78500       -0.98300        2.27800
O          7.22400        1.05300        3.21400
C          8.49100        0.56700        3.67600
C          8.31200        0.06700        5.10100
H          0.43100        0.03600        0.16300
H          1.46600        1.00000        1.24400
H          0.99800       -0.62500        1.71700
H          2.81900        0.04300       -0.67600
H          2.32000       -1.58000       -0.18300
H          4.58600       -1.11800        4.30600
H          3.06600       -0.43000        3.69600
H          5.18200        0.97900        5.46000
H          3.43300        1.31200        5.41000
H          5.29400        2.62800        3.60900
H          3.60600        2.33200        3.16400
H          9.19000        1.41100        3.66300
H          8.90100       -0.21100        3.02500
H          7.90500        0.86300        5.73500
H          9.25900       -0.27500        5.52400
H          7.59100       -0.75700        5.13600
