38
3780-50-5.pdb
C          0.84900       -0.02900       -0.12500
C          2.36700       -0.05600       -0.15700
C          2.96800        1.34700       -0.12800
C          4.49800        1.26100       -0.16300
C          5.12900        2.64700       -0.13700
C          6.67000        2.61900       -0.16800
C          7.16900        4.06900       -0.12200
C          8.68700        4.32500       -0.17400
O          8.84600        5.75000       -0.14000
C         10.07700        6.34600       -0.11000
C         11.32700        5.73100       -0.15200
C         12.50200        6.51500       -0.11100
C         12.41300        7.90400       -0.01200
O         13.52900        8.69200        0.04400
C         11.17400        8.52300        0.01400
C         10.02000        7.74100       -0.02900
H          0.45700       -1.05000       -0.15200
H          0.44800        0.51300       -0.98700
H          0.48400        0.45300        0.78700
H          2.69700       -0.57800       -1.06200
H          2.73400       -0.63100        0.70100
H          2.64100        1.87500        0.77600
H          2.60400        1.92600       -0.98600
H          4.81200        0.72900       -1.06800
H          4.84800        0.68100        0.69900
H          4.79500        3.17300        0.76600
H          4.75900        3.22300       -0.99500
H          7.01300        2.10900       -1.07700
H          7.04600        2.05000        0.69000
H          6.77600        4.52900        0.79500
H          6.69700        4.62000       -0.94700
H          9.10700        3.92800       -1.10300
H          9.17400        3.87200        0.69500
H         11.43300        4.65700       -0.22000
H         13.47600        6.03000       -0.14900
H         14.31600        8.12700        0.01600
H         11.11400        9.60600        0.08300
H          9.05000        8.24300       -0.00600
