24
37828-19-6.pdb
O          3.04900       -0.86300        0.93100
C          2.49500        0.09600        0.30100
O          1.42700        0.69400        0.66800
C          3.17700        0.59800       -0.98000
C          4.75200        0.49000       -0.97300
C          4.80000        1.90200       -1.58100
C          3.42600        2.15600       -0.94400
C          2.42200       -0.01300       -2.27400
C          1.32100        0.63400       -2.86900
C          0.70100        0.14400       -4.02200
C          1.15900       -1.02900       -4.61300
C          2.21800       -1.72000       -4.03400
C          2.82800       -1.22100       -2.88000
H          5.20300       -0.28400       -1.60100
H          5.20900        0.42900        0.02100
H          4.78700        1.91800       -2.67600
H          5.61300        2.54100       -1.22700
H          2.75300        2.78600       -1.53100
H          3.49300        2.58100        0.06700
H          0.93500        1.53800       -2.40100
H         -0.14100        0.68100       -4.44600
H          0.68100       -1.41100       -5.50900
H          2.57100       -2.65000       -4.47100
H          3.64000       -1.78700       -2.42600
