29
37920-25-5.pdb
C          1.88800        0.54200       -3.19900
C          3.21600        0.95200       -2.58100
C          3.12800        0.99100       -1.05400
C          4.44900        1.38400       -0.37800
C          4.94600        2.76800       -0.72400
C          4.15100        3.89700       -0.48700
C          4.60900        5.17100       -0.82700
C          5.88100        5.34100       -1.38700
C          6.68700        4.22300       -1.61500
C          6.22100        2.94700       -1.28300
C          6.30800        6.72100       -1.73800
C          7.77100        7.07900       -1.72900
O          5.45500        7.56800       -2.00800
H          1.96900        0.51400       -4.29000
H          1.09900        1.25400       -2.93600
H          1.58300       -0.45100       -2.85400
H          3.49500        1.93600       -2.97500
H          3.99400        0.24400       -2.89200
H          2.84200       -0.00400       -0.68900
H          2.32600        1.67400       -0.74900
H          5.21200        0.63700       -0.62900
H          4.32200        1.33500        0.71100
H          3.16300        3.79400       -0.04400
H          3.96800        6.03400       -0.65200
H          7.66800        4.31500       -2.07200
H          6.85800        2.08400       -1.47400
H          8.39500        6.29800       -1.29200
H          7.90300        7.97800       -1.11800
H          8.10100        7.28000       -2.75200
