39
37942-07-7.pdb
C          1.19000       -0.49200        0.33700
C          2.63600       -0.04100        0.05100
C          3.51500       -1.29800       -0.13200
C          2.65600        0.70200       -1.30800
C          3.09600        0.84900        1.22200
C          3.72000        0.34100        2.36600
C          4.06300        1.19100        3.42700
C          4.72300        0.58300        4.60400
O          5.04400        1.26300        5.57700
C          3.77400        2.56900        3.37800
O          4.15200        3.38700        4.41000
C          3.11200        3.12300        2.27400
C          2.81600        2.23200        1.21200
C          2.71700        4.61400        2.12400
C          3.88700        5.37600        1.46800
C          1.46100        4.78900        1.22400
C          2.35500        5.32600        3.44700
H          0.81200       -1.14200       -0.46000
H          0.50900        0.36500        0.41500
H          1.12300       -1.04900        1.27900
H          3.17500       -1.89000       -0.99000
H          3.47700       -1.96200        0.73600
H          4.56100       -1.02500       -0.31000
H          2.37600        0.03400       -2.13200
H          3.65300        1.10300       -1.52600
H          1.94400        1.53400       -1.34700
H          3.93700       -0.72000        2.44800
H          4.91200       -0.50300        4.57600
H          4.56300        2.84200        5.11800
H          2.32700        2.63200        0.33300
H          4.11000        4.98700        0.46800
H          4.80300        5.29700        2.06600
H          3.65200        6.43900        1.36200
H          1.64800        4.52000        0.17900
H          1.12300        5.83100        1.20100
H          0.62900        4.17600        1.59000
H          3.20600        5.43600        4.12300
H          1.55400        4.79800        3.97600
H          2.00700        6.34900        3.25500
