17
38028-67-0.pdb
C          0.89600       -0.49000       -1.56500
C          2.39100       -0.55000       -1.83500
O          3.04500       -1.00500       -0.65000
C          4.40100       -1.18100       -0.83900
C          5.20900       -1.14000        0.28200
C          6.57300       -1.32700        0.11300
C          7.04500       -1.56800       -1.16400
N          6.23300       -1.61900       -2.23900
N          4.89500       -1.42200       -2.07400
H          0.36300       -0.07600       -2.42600
H          0.68300        0.12300       -0.68400
H          0.50600       -1.49300       -1.36100
H          2.75500        0.45200       -2.09100
H          2.55800       -1.23200       -2.67800
H          4.78400       -0.95100        1.26100
H          7.25300       -1.28500        0.95600
H          8.09800       -1.72700       -1.36600
