21
38026-46-9.pdb
C          1.94000       -0.51400        1.73900
C          2.46200       -0.35500        0.32200
O          3.15900       -1.55800       -0.02500
C          4.46900       -1.59600        0.31100
O          5.14000       -0.63500        0.66500
C          4.94000       -2.98700        0.39400
C          5.94000       -3.23600        1.25500
N          6.39800       -4.50600        1.49000
C          5.86300       -5.61000        0.88900
S          6.42100       -7.13900        1.21500
N          4.84300       -5.38000        0.01000
C          4.34100       -4.14000       -0.32100
O          3.46600       -4.03300       -1.17400
H          1.37000        0.36300        2.05400
H          2.76600       -0.67100        2.44200
H          1.29900       -1.40000        1.80900
H          3.09700        0.53300        0.22400
H          1.62700       -0.24000       -0.37700
H          6.42700       -2.44900        1.82800
H          7.14700       -4.65600        2.16100
H          4.43500       -6.17100       -0.46900
