17
38116-61-9.pdb
C         -2.50100        1.15000       -0.01700
C         -1.27200        0.29800       -0.00500
C         -1.29100       -1.04100        0.00100
C         -0.04800       -1.77600       -0.00400
C          1.15200       -1.16300       -0.00800
C          2.42200       -2.01800       -0.04000
O          3.47100       -1.48700       -0.49300
O          2.27000       -3.22000        0.34700
C          1.17600        0.32600        0.01000
O          2.17500        1.03300        0.05700
N         -0.06000        0.94300       -0.00300
H         -3.41500        0.54700       -0.02200
H         -2.51500        1.78400       -0.91000
H         -2.53100        1.79600        0.86700
H         -2.21400       -1.61000       -0.00000
H         -0.10800       -2.86200       -0.01100
H         -0.01100        1.95200        0.01300
