17
3815-86-9.pdb
N          0.86800       -2.25600        1.23300
N          2.27700       -2.25700        1.18700
C          2.95400       -1.07900        0.92500
O          2.38400       -0.04600        0.55800
C          4.46500       -1.14600        0.98500
C          5.05300       -2.17600        1.91100
O          4.47200       -3.21100        2.23900
N          6.33800       -1.87800        2.35000
N          7.01700       -2.81500        3.16100
H          0.52700       -3.08000        0.73400
H          0.54700       -1.44800        0.68400
H          2.78100       -3.01100        1.67200
H          4.82400       -0.15600        1.29100
H          4.83200       -1.34900       -0.02700
H          6.88100       -1.13800        1.90600
H          6.47200       -3.68800        3.13600
H          6.93500       -2.50700        4.13400
