38
38222-83-2.pdb
C         -2.59500        0.01700       -0.01700
C         -1.10000       -0.00900        0.01100
C         -0.39600       -1.21000        0.01400
C          0.99800       -1.19300        0.01500
N          1.68200       -0.02000        0.02200
C          1.00900        1.16000        0.02700
C         -0.38300        1.18900        0.02100
C          1.83200        2.45400        0.02200
C          3.34700        2.15000        0.02300
C          1.50000        3.28500       -1.23400
C          1.51900        3.29600        1.27500
C          1.81500       -2.49100       -0.02000
C          1.47800       -3.29400       -1.29200
C          3.33000       -2.18500       -0.02500
C          1.51800       -3.36900        1.21200
H         -3.01500       -0.99600       -0.01400
H         -2.94800        0.52200       -0.92200
H         -2.98200        0.54200        0.86400
H         -0.93300       -2.15500        0.00300
H         -0.91600        2.13500        0.01500
H          3.64400        1.58000       -0.86500
H          3.63500        1.56500        0.90500
H          3.93900        3.07300        0.03600
H          1.73300        2.73400       -2.15200
H          2.06900        4.22200       -1.24900
H          0.43900        3.55600       -1.27500
H          1.75500        2.74800        2.19300
H          0.46300        3.58300        1.32300
H          2.10400        4.22400        1.27900
H          1.72500       -2.72800       -2.19800
H          0.41400       -3.55000       -1.34600
H          2.03600       -4.23700       -1.32200
H          3.61900       -1.61300       -0.91500
H          3.92500       -3.10500       -0.01700
H          3.62000       -1.59900        0.85500
H          0.46400       -3.66700        1.26000
H          1.75800       -2.84600        2.14500
H          2.11100       -4.29100        1.18700
