15
3839-22-3.pdb
O          2.68100        0.30600        1.22400
C          2.46400       -0.02600        0.01800
O          1.72700        0.59800       -0.80100
C          3.17400       -1.26000       -0.48200
C          4.32200       -1.71500        0.20500
C          5.02700       -2.84200       -0.22000
C          4.60100       -3.53700       -1.34500
C          3.47100       -3.10500       -2.03800
C          2.75000       -1.97000       -1.61700
C          1.59500       -1.60900       -2.39400
N          0.69000       -1.45300       -3.11300
H          4.66400       -1.16300        1.08100
H          5.90600       -3.16500        0.33000
H          5.14800       -4.41000       -1.68600
H          3.14400       -3.65400       -2.91900
