28
38401-67-1.pdb
C          1.36100       -0.72600       -0.06800
O          2.52000        0.09900       -0.08000
C          3.17300        0.25400        1.11000
C          2.77900       -0.27800        2.33500
C          3.55500       -0.06200        3.48100
C          4.74000        0.68900        3.42700
C          5.11700        1.22800        2.18900
C          4.34000        1.01500        1.04500
C          5.53400        0.90500        4.65000
S          7.23900        1.09900        4.57800
C          7.39400        1.30000        6.26400
C          6.16300        1.18700        6.88300
C          5.10100        0.96100        5.96200
C          8.66400        1.54900        6.93800
C          9.95300        1.66600        6.15700
O          8.72300        1.67700        8.16400
H          1.02000       -0.84200       -1.10100
H          0.55600       -0.25300        0.50300
H          1.58500       -1.72800        0.31800
H          1.87800       -0.87300        2.43800
H          3.22300       -0.50700        4.41600
H          6.01800        1.82800        2.09000
H          4.65600        1.44300        0.09700
H          6.03400        1.27300        7.95700
H          4.06300        0.85800        6.25800
H          9.84100        1.55000        5.08000
H         10.64400        0.89500        6.51100
H         10.38600        2.65300        6.34600
