28
3840-31-1.pdb
C          1.05200       -0.50800       -0.07200
O          2.41400       -0.09600       -0.10000
C          3.08400       -0.06900        1.09600
C          2.70900       -0.87000        2.18600
C          3.45500       -0.87800        3.37300
C          3.03200       -1.72600        4.54200
O          4.05200       -2.65700        4.87700
C          4.60000       -0.08000        3.46100
C          5.00800        0.70500        2.37600
O          6.11800        1.51500        2.41400
C          7.19400        1.04900        3.22000
C          4.23700        0.73500        1.19400
O          4.74500        1.52300        0.18600
C          3.80200        2.18700       -0.64500
H          0.62300       -0.30900       -1.05900
H          0.47800        0.06600        0.66400
H          0.96800       -1.58300        0.11100
H          1.84300       -1.51900        2.12300
H          2.12300       -2.29300        4.31700
H          2.82700       -1.09500        5.41300
H          4.39000       -3.02500        4.04200
H          5.16200       -0.07900        4.39100
H          8.09100        1.60800        2.93500
H          7.39600       -0.01400        3.05000
H          7.00000        1.24800        4.27800
H          4.29500        3.07000       -1.06500
H          2.92200        2.53300       -0.09200
H          3.52000        1.54900       -1.48800
