24
3843-74-1.pdb
C          1.08600       -0.01300       -0.66100
O          2.51400        0.01400       -0.66300
C          3.03000        1.26300       -0.52900
O          2.39800        2.30000       -0.41700
C          4.50400        1.15600       -0.54700
C          5.25300        2.26600       -0.43900
C          6.72400        2.28300       -0.43800
C          7.49000        1.32600       -1.12800
C          8.88900        1.38000       -1.12200
C          9.52300        2.40300       -0.43200
O         10.88600        2.50500       -0.38300
C          8.77500        3.36800        0.23300
O          9.40700        4.37900        0.90000
C          7.38600        3.32100        0.23200
H          0.76500       -1.05300       -0.77000
H          0.69000        0.56100       -1.50500
H          0.69500        0.37200        0.28600
H          4.92200        0.16400       -0.63800
H          4.77000        3.23600       -0.32300
H          7.00700        0.53100       -1.69100
H          9.45100        0.62400       -1.66000
H         11.26300        1.75500       -0.87400
H         10.36000        4.20600        0.76200
H          6.83300        4.09300        0.76100
