23
3853-88-1.pdb
O          2.85700        0.22300        0.88000
C          2.72300       -0.30600       -0.36200
O          2.15200       -1.36800       -0.55400
C          3.41000        0.51900       -1.42700
C          3.22200        0.03500       -2.88600
C          3.59000        1.31400       -3.65500
C          2.50100        2.15500       -2.97800
C          1.31800        1.26000       -3.27700
C          1.75600       -0.00300       -3.23700
C          2.85300        1.98200       -1.48600
C          3.91700        2.86700       -0.88900
O          4.47600        3.80500       -1.66500
O          4.27900        2.67700        0.27000
H          3.41300        1.03500        0.94100
H          4.48400        0.49300       -1.19700
H          3.79300       -0.84900       -3.17200
H          3.45600        1.22900       -4.74100
H          4.60600        1.66800       -3.45300
H          2.39000        3.17200       -3.35300
H          0.29800        1.57900       -3.44600
H          1.17000       -0.90400       -3.36400
H          1.95600        2.12800       -0.87000
H          4.16400        3.88600       -2.58400
