16
3857-25-8.pdb
C          2.14000        0.00700       -0.01100
C          0.67200       -0.14900       -0.01000
O         -0.06800        0.99500       -0.02200
C         -1.38200        0.62300        0.00700
C         -2.37700        1.71900        0.02700
O         -2.70300        2.04200       -1.32000
C         -1.48200       -0.75200        0.02100
C         -0.15700       -1.25000        0.00700
H          2.43200        1.06200       -0.00000
H          2.57200       -0.45700       -0.90300
H          2.57400       -0.47400        0.87100
H         -1.98500        2.61400        0.51900
H         -3.29300        1.41300        0.53900
H         -1.86600        2.31300       -1.74000
H         -2.39900       -1.32300        0.04400
H          0.15700       -2.28400        0.01600
