13
3859-41-4.pdb
O          1.32900        0.03000        0.56600
C          2.47800        0.07400        0.14700
C          3.29000       -1.15000       -0.18500
C          4.61400       -0.63200       -0.73600
C          4.51200        0.87100       -0.69600
O          5.38700        1.61900       -1.11500
C          3.24100        1.34600       -0.06400
H          2.76300       -1.75300       -0.93100
H          3.44800       -1.73900        0.72200
H          4.77100       -0.96500       -1.76500
H          5.45100       -0.95600       -0.11000
H          2.70000        2.00700       -0.74400
H          3.45900        1.81000        0.90000
