17
3878-55-5.pdb
C          1.21800       -1.90200        0.71800
O          2.63900       -1.74600        0.70500
C          3.12400       -1.20500       -0.43600
O          2.47200       -0.86400       -1.41600
C          4.62100       -1.15000       -0.44500
C          5.18700       -2.43000       -1.03400
C          4.96500       -2.71200       -2.50500
O          4.14800       -1.90600       -3.20000
O          5.51400       -3.66500       -3.04800
H          0.93700       -2.37200        1.66500
H          0.89200       -2.55200       -0.10100
H          0.72900       -0.92500        0.65400
H          4.98000       -1.00400        0.58000
H          4.93600       -0.27000       -1.01500
H          4.81000       -3.29400       -0.47600
H          6.27700       -2.39000       -0.90200
H          3.58600       -1.25500       -2.72700
