19
38862-24-7.pdb
C          4.60300        0.82000        2.49000
C          4.68700        0.32000        1.25100
C          4.19200       -1.03900        0.92700
O          3.63100       -1.79700        1.70000
O          4.64900       -1.32600       -0.31900
N          5.15200       -2.62600       -0.38800
C          4.93100       -3.40800       -1.47400
O          4.20300       -3.19300       -2.42900
C          5.84200       -4.60100       -1.35100
C          6.80100       -4.23600       -0.22500
C          6.30600       -2.91200        0.26800
O          6.91200       -2.20400        1.05900
H          5.06400        1.77500        2.72300
H          4.12200        0.27600        3.29500
H          5.21600        0.84900        0.46700
H          6.38900       -4.75400       -2.28800
H          5.26000       -5.49500       -1.11300
H          7.82000       -4.10700       -0.60200
H          6.79400       -4.97300        0.58100
