27
3886-70-2.pdb
C          1.03600       -0.06000        0.20500
C          2.55700       -0.02100        0.07600
N          3.16400       -0.42800        1.37500
C          3.04400       -0.89100       -1.06500
C          2.75400       -2.27500       -1.02100
C          3.10900       -3.11700       -2.06600
C          3.75400       -2.59500       -3.17800
C          4.06000       -1.23200       -3.26100
C          4.68700       -0.74500       -4.42000
C          5.00500        0.60300       -4.55400
C          4.70800        1.48100       -3.52400
C          4.07800        1.01400       -2.36700
C          3.72300       -0.35000       -2.20000
H          0.69000        0.60000        1.00700
H          0.66200       -1.06700        0.42000
H          0.56800        0.27200       -0.72900
H          2.85800        1.02000       -0.03600
H          2.92200       -1.39300        1.62600
H          2.86900        0.18600        2.14100
H          4.18900       -0.38100        1.30900
H          2.21100       -2.72000       -0.19100
H          2.86300       -4.17700       -2.03000
H          4.00900       -3.26900       -3.99600
H          4.92700       -1.41600       -5.24300
H          5.48200        0.96300       -5.46300
H          4.95900        2.53500       -3.62500
H          3.87400        1.76600       -1.61100
