24
38922-77-9.pdb
C          6.20700        0.45600       -1.01500
C          5.19400        0.61100        0.10500
O          5.24900       -0.56300        0.91900
C          4.48100       -1.60800        0.49800
O          3.55400       -1.51900       -0.29900
C          4.96800       -2.88300        1.01900
C          4.48200       -4.13700        0.68700
N          5.31900       -5.03600        1.29200
C          5.31500       -6.42800        1.23900
C          6.26300       -7.11100        1.90500
C          7.26200       -6.37100        2.66200
C          7.25900       -5.02400        2.70800
C          6.26000       -4.29800        2.00100
N          6.06300       -3.00700        1.86000
H          6.24400        1.34900       -1.64300
H          5.96300       -0.40700       -1.64400
H          7.20500        0.26800       -0.60300
H          4.18700        0.79900       -0.28200
H          5.46600        1.46100        0.73900
H          3.66400       -4.44300        0.05000
H          4.54200       -6.90400        0.65000
H          6.30900       -8.19400        1.89100
H          8.02200       -6.93800        3.19200
H          8.00400       -4.46800        3.26500
