32
3893-23-0.pdb
N          1.10900        0.29400       -0.69000
C          2.22400        0.13100       -0.40400
C          3.64500       -0.06400       -0.02400
C          4.08200        0.97900        1.05600
C          3.36100        0.78400        2.40600
C          3.72600        1.86300        3.42400
C          3.47900        3.26000        2.87000
C          4.26400        3.47900        1.58300
C          3.91400        2.42600        0.53500
C          3.98900       -1.51000        0.34300
C          3.00900       -2.50700        0.50900
C          3.36400       -3.82900        0.79000
C          4.70300       -4.18000        0.92100
C          5.68900       -3.20900        0.77600
C          5.33800       -1.88700        0.48500
H          4.22600        0.14900       -0.93400
H          5.15600        0.84300        1.24700
H          3.61700       -0.19400        2.82900
H          2.27400        0.79400        2.26200
H          4.78200        1.76200        3.70500
H          3.13700        1.71900        4.33700
H          3.76800        4.01200        3.61300
H          2.40800        3.39600        2.67700
H          5.33900        3.44600        1.79500
H          4.04700        4.47800        1.18500
H          4.54800        2.57500       -0.34800
H          2.88100        2.60200        0.21400
H          1.94700       -2.28500        0.41300
H          2.58900       -4.58500        0.89900
H          4.97600       -5.21100        1.13400
H          6.73600       -3.48300        0.87900
H          6.13300       -1.15700        0.36100
