58
38966-21-1.pdb
C          3.95400        1.06400        1.05800
C          3.00900        0.58800       -0.06900
C          3.71900        0.98100       -1.40700
O          3.01000        0.53200       -2.55400
C          2.84700       -0.95800        0.05900
O          3.84700       -1.64400       -0.70000
C          1.49100       -1.48100       -0.39400
C          0.33400       -0.93100        0.42800
C          0.45500        0.58300        0.80000
C          0.75300        0.61000        2.32400
C          1.60500        1.30000       -0.02800
C          1.70100        2.82200        0.28000
C          0.38600        3.55900        0.02900
C         -0.73800        2.86300        0.77100
C         -2.14900        3.43000        0.58400
C         -3.09100        2.20200        0.73600
C         -2.14300        1.11400        1.32300
C         -0.88600        1.35000        0.45000
C         -1.27700        1.13600       -1.07800
C         -2.72000        0.67200       -1.26500
C         -3.69000        1.66300       -0.60100
O         -4.88200        0.91900       -0.26700
C         -4.11200        2.72500       -1.63800
O         -5.00100        3.67300       -1.05900
H          3.51400        0.93300        2.04800
H          4.89500        0.49900        1.04200
H          4.22100        2.12100        0.95000
H          3.82400        2.06600       -1.49700
H          4.73700        0.57700       -1.46100
H          3.06300       -0.44200       -2.54200
H          2.98800       -1.26500        1.10300
H          4.71300       -1.43900       -0.30600
H          1.48600       -2.58200       -0.33300
H          1.33300       -1.26400       -1.45500
H         -0.59500       -1.15200       -0.10900
H          0.24400       -1.53700        1.34000
H          1.58500       -0.04600        2.57600
H          1.00100        1.60800        2.69700
H         -0.10100        0.24700        2.90300
H          1.26000        1.26600       -1.06800
H          2.00600        2.98300        1.32000
H          2.47000        3.29700       -0.33800
H          0.47700        4.59600        0.37700
H          0.19200        3.61400       -1.04600
H         -0.50900        2.98300        1.84100
H         -2.25000        3.96000       -0.36500
H         -2.35700        4.16100        1.37300
H         -3.89200        2.43200        1.44800
H         -1.96400        1.33100        2.38400
H         -2.54700        0.09900        1.27200
H         -0.63400        0.40100       -1.57100
H         -1.13300        2.05500       -1.65400
H         -2.84400       -0.33500       -0.84600
H         -2.94300        0.55200       -2.33200
H         -5.43700        1.51200        0.27400
H         -3.25300        3.25700       -2.05900
H         -4.63400        2.25400       -2.48100
H         -5.89400        3.29200       -1.13800
