19
39079-62-4.pdb
O          1.13800        0.09200        0.16900
C          2.35000       -0.06500       -0.13800
O          3.06300       -1.10600        0.01600
C          3.03800        1.08500       -0.86400
C          4.05200        0.80100       -1.69700
O          4.77000        1.69100       -2.45800
C          4.37400        3.00300       -2.42600
C          5.05700        3.89800       -3.25000
C          4.70100        5.24900       -3.26100
C          3.65900        5.70300       -2.45000
C          2.97900        4.80700       -1.62500
C          3.34200        3.45400       -1.61200
C          2.64700        2.50000       -0.71900
O          1.84800        2.93900        0.09800
H          4.41700       -0.20800       -1.85600
H          5.86800        3.54300       -3.88000
H          5.23500        5.94600       -3.90000
H          3.37800        6.75300       -2.45600
H          2.17000        5.15700       -0.98700
