28
39070-63-8.pdb
N         -1.88100        1.30400        0.07000
C         -0.61300        0.69000       -0.03500
C          0.54800        1.46100        0.06600
C          1.80700        0.85400        0.02600
C          1.90600       -0.53500       -0.10600
C          0.74500       -1.31700       -0.12400
C         -0.51200       -0.71800       -0.01200
N         -1.68200       -1.50800       -0.09100
C          3.22000       -1.22500       -0.15900
O          3.33400       -2.32200        0.38600
C          4.39600       -0.63100       -0.84700
C          4.26000        0.20800       -1.96000
C          5.39500        0.73400       -2.58200
C          6.66600        0.40800       -2.10900
C          6.80800       -0.44800       -1.01800
C          5.67600       -0.97000       -0.39000
H         -1.87800        2.26700       -0.25100
H         -2.57300        0.75300       -0.43400
H          0.48100        2.54100        0.16100
H          2.69300        1.47700        0.10800
H          0.83000       -2.39900       -0.19400
H         -1.52200       -2.46200        0.22300
H         -2.42600       -1.07200        0.45000
H          3.28200        0.44900       -2.36800
H          5.28800        1.38900       -3.44300
H          7.54800        0.81200       -2.60000
H          7.79900       -0.71600       -0.66000
H          5.79400       -1.64600        0.45600
