46
39085-59-1.pdb
C          3.80900       -0.94200       -0.29900
C          2.61100       -0.07700        0.10600
C          1.35500       -0.93700        0.27300
C          2.89300        0.73200        1.36000
C          2.91100        2.12300        1.31600
C          3.15400        2.91200        2.46400
C          3.16800        4.43500        2.23800
C          4.25200        4.85500        1.23000
C          1.80200        4.95900        1.76600
C          3.38700        2.26000        3.71700
C          3.38600        0.83400        3.78000
C          3.13000        0.11500        2.58800
C          3.56000       -0.00900        5.04600
C          2.18100       -0.34800        5.62200
C          4.39500       -1.29000        4.88600
S          3.74900        3.26300        5.17500
O          3.71400        2.48700        6.39800
O          4.88400        4.11200        4.88200
N          2.34100        4.27600        5.34300
N          2.50500        5.07500        6.52600
H          3.58700       -1.50500       -1.21300
H          4.07700       -1.66700        0.47800
H          4.69100       -0.32300       -0.49500
H          2.41900        0.61500       -0.72400
H          1.48700       -1.71100        1.03700
H          1.10500       -1.44100       -0.66700
H          0.49700       -0.32200        0.56500
H          2.73200        2.61000        0.35600
H          3.39800        4.96800        3.16100
H          3.99100        4.57600        0.20400
H          5.21700        4.39700        1.46900
H          4.38100        5.94400        1.24300
H          1.54700        4.60300        0.76100
H          1.80400        6.05500        1.72700
H          1.00000        4.64700        2.44300
H          3.09900       -0.97200        2.61500
H          4.14000        0.53400        5.78400
H          1.56400       -0.89100        4.89500
H          1.63300        0.55800        5.90300
H          2.26900       -0.97700        6.51400
H          3.92100       -2.03900        4.24500
H          4.54300       -1.76100        5.86500
H          5.38500       -1.05900        4.47800
H          1.50300        3.68600        5.42100
H          3.36400        5.63000        6.39700
H          2.74900        4.43700        7.30100
