22
39101-54-7.pdb
C          2.52000        1.13100        0.00800
C          1.24000        0.34600       -0.00300
C          1.25900       -1.05400       -0.01100
C          0.06500       -1.78500       -0.01300
C          0.07900       -3.28600       -0.01200
C         -1.15700       -1.10200       -0.00400
C         -1.19700        0.30000        0.00800
C         -2.52100        1.02400        0.07400
C         -2.96400        1.26400        1.45500
N         -3.33700        1.46400        2.53700
C          0.00900        1.01500        0.00700
H          3.39500        0.47300        0.00100
H          2.57400        1.75200        0.90800
H          2.57700        1.77300       -0.87700
H          2.21200       -1.57900       -0.00800
H          1.10000       -3.68000       -0.00800
H         -0.42600       -3.66700       -0.90500
H         -0.43100       -3.66500        0.88000
H         -2.08400       -1.67300        0.00500
H         -3.28000        0.44300       -0.46400
H         -2.44200        1.97700       -0.46300
H         -0.00400        2.10400        0.02500
