29
3913-81-3.pdb
C          0.89500       -0.05900       -0.06900
C          2.41100       -0.02700       -0.07100
C          2.94400        1.25400       -0.71500
C          4.47000        1.24700       -0.72800
C          5.04700        2.49200       -1.40500
C          6.58200        2.49700       -1.42400
C          7.16600        1.32800       -2.22100
C          8.66600        1.31900       -2.19100
C          9.36500        0.30200       -1.66400
C         10.83900        0.30700       -1.67400
O         11.48000       -0.62200       -1.19900
H          0.53700       -0.98100        0.40000
H          0.50200       -0.02200       -1.09000
H          0.48700        0.79000        0.48900
H          2.78800       -0.90200       -0.61600
H          2.78000       -0.10700        0.95800
H          2.57800        2.12900       -0.16700
H          2.56900        1.33100       -1.74300
H          4.79600        0.34400       -1.25400
H          4.85000        1.17900        0.29900
H          4.70000        3.38700       -0.87300
H          4.66900        2.56700       -2.43100
H          6.95500        2.47600       -0.39200
H          6.92100        3.44500       -1.86200
H          6.83000        1.38600       -3.26300
H          6.79900        0.37600       -1.82500
H          9.17000        2.17200       -2.64000
H          8.89600       -0.56800       -1.21700
H         11.32400        1.18500       -2.13100
