16
3913-67-5.pdb
C          0.99800        0.13300        0.04100
N          2.45700        0.04900        0.10700
C          2.90900       -1.12000        0.92300
C          2.46000       -2.46500        0.35600
C          4.44700       -1.11300        0.93700
O          4.95100       -0.46700       -0.14800
O          5.14400       -1.64500        1.78700
H          0.71500        1.06600       -0.45800
H          0.55000        0.14000        1.04000
H          0.57000       -0.68500       -0.54600
H          2.77500        0.89400        0.59700
H          2.56700       -0.99300        1.95700
H          2.74600       -2.56700       -0.69800
H          1.37600       -2.59600        0.43200
H          2.93000       -3.29200        0.89900
H          4.17400       -0.14200       -0.66700
