21
39222-73-6.pdb
C          1.03900       -0.03400       -0.05800
C          2.57800       -0.01200       -0.09000
C          3.10400        0.89800        1.03600
C          3.08900       -1.44300        0.19100
C          3.06400        0.45000       -1.45600
S          2.67400        2.00400       -2.10000
C          3.54900        1.57500       -3.51200
N          3.67300        2.41900       -4.55100
N          4.05600        0.36300       -3.46900
N          3.78000       -0.28600       -2.28400
H          0.66700       -0.40100        0.90400
H          0.63700       -0.68500       -0.84400
H          0.61400        0.96400       -0.21100
H          2.79400        0.52500        2.01900
H          2.72700        1.92300        0.94600
H          4.20000        0.94700        1.03000
H          2.75300       -1.79900        1.17200
H          4.18500       -1.48400        0.18300
H          2.72600       -2.15300       -0.56100
H          3.01400        3.18300       -4.63600
H          3.96200        2.00800       -5.43200
