30
39269-10-8.pdb
O          1.20500       -0.30900        0.15500
C          2.40800        0.08200        0.10300
O          3.02400        0.79800        0.94900
C          3.20200       -0.30500       -1.17700
C          4.64900        0.23700       -1.16400
C          5.37300       -0.10800       -2.47500
C          4.61500        0.52200       -3.65100
C          3.17800       -0.01800       -3.69500
C          2.45700        0.32000       -2.38000
C          3.22000       -1.54500       -3.86900
C          3.97600       -2.21000       -2.69700
C          5.41100       -1.63600       -2.64700
C          3.25400       -1.84400       -1.37300
C          4.10200       -3.75100       -2.87400
O          3.58500       -4.23800       -3.92500
O          4.75300       -4.36600       -1.97900
H          5.20300       -0.18200       -0.31400
H          4.64900        1.32700       -1.02700
H          6.39600        0.28300       -2.44400
H          5.13000        0.29800       -4.59300
H          4.60100        1.61400       -3.54700
H          2.64100        0.43300       -4.53600
H          1.42300       -0.04500       -2.43200
H          2.39400        1.41000       -2.26200
H          3.70300       -1.78600       -4.82400
H          2.19600       -1.93500       -3.93100
H          5.95500       -1.89300       -3.56500
H          5.98000       -2.07700       -1.81800
H          3.76400       -2.30400       -0.51600
H          2.24100       -2.26700       -1.37800
