31
3937-56-2.pdb
O          0.95600       -0.05000       -0.08800
C          2.37500       -0.05800       -0.12000
C          2.89900        0.25300        1.27300
C          4.42300        0.25800        1.30200
C          4.94700        0.56900        2.70200
C          6.47300        0.57300        2.72200
C          7.00400        0.88100        4.12000
C          8.53000        0.88400        4.13300
C          9.06600        1.19200        5.52700
C         10.58800        1.19600        5.54400
O         11.05400        1.48400        6.85500
H          0.65000       -0.25400       -0.98800
H          2.71400        0.69300       -0.84100
H          2.71300       -1.04600       -0.45200
H          2.50700       -0.48400        1.98400
H          2.50900        1.22500        1.60100
H          4.80400        1.00300        0.59300
H          4.80200       -0.71900        0.97700
H          4.57000       -0.17700        3.41200
H          4.57000        1.54600        3.02800
H          6.84900        1.32000        2.01200
H          6.84900       -0.40300        2.39200
H          6.62800        0.13400        4.82900
H          6.62900        1.85800        4.44900
H          8.90300        1.63100        3.42200
H          8.90300       -0.09300        3.80200
H          8.69500        0.45500        6.25000
H          8.69200        2.16400        5.87000
H         10.99100        1.94700        4.85800
H         10.98200        0.21700        5.25200
H         10.70000        2.35500        7.10500
