29
3943-77-9.pdb
C          1.68100       -0.04900        1.43300
C          2.48100       -0.30600        0.16700
O          3.30400       -1.45500        0.39900
C          4.48700       -1.16900        1.00500
O          5.02900       -0.08100        1.03400
C          4.97900       -2.34900        1.76400
C          4.30700       -3.57400        1.79800
C          4.86100       -4.65900        2.49200
C          6.08700       -4.53700        3.16500
O          6.66700       -5.55200        3.87500
C          6.00400       -6.80600        3.93700
C          6.75400       -3.29600        3.14200
O          7.94800       -2.97600        3.73200
C          8.91300       -4.01200        3.86600
C          6.17800       -2.21100        2.46700
H          0.98800        0.78900        1.29400
H          2.35000        0.18500        2.26800
H          1.11100       -0.93800        1.72300
H          3.06300        0.57500       -0.10800
H          1.79900       -0.52900       -0.66300
H          3.36000       -3.70500        1.27700
H          4.31300       -5.59600        2.47200
H          6.62200       -7.47500        4.54500
H          5.91000       -7.25600        2.94300
H          5.03000       -6.71800        4.42900
H          9.88300       -3.53600        4.04400
H          9.00800       -4.61200        2.95400
H          8.69800       -4.63300        4.73900
H          6.69800       -1.25400        2.46900
