23
3943-74-6.pdb
C          1.08200        0.05100       -0.92600
O          2.51000        0.05800       -0.92000
C          3.05900        1.24100       -0.54500
O          2.44300        2.24600       -0.22900
C          4.54500        1.15400       -0.57400
C          5.21800       -0.00800       -0.96400
C          6.61300       -0.03400       -0.98700
C          7.34700        1.10000       -0.62200
O          8.71100        1.02700       -0.67200
C          6.69000        2.27000       -0.22000
O          7.23700        3.46000        0.17600
C          8.65200        3.57400        0.20700
C          5.28700        2.28300       -0.20400
H          0.75100       -0.97300       -1.11600
H          0.70600        0.69300       -1.72800
H          0.68400        0.36700        0.04400
H          4.67100       -0.90200       -1.25300
H          7.11200       -0.94900       -1.29500
H          8.97500        0.15300       -1.00400
H          8.89500        4.57900        0.56500
H          9.07900        3.47700       -0.79600
H          9.09500        2.86600        0.91400
H          4.77200        3.19300        0.10300
