22
3949-36-8.pdb
C          1.25600       -0.77900       -0.10400
C          2.52300        0.03700       -0.07900
O          2.96100        0.52500       -1.12400
C          3.22600        0.26500        1.22600
C          4.30000        1.07400        1.19900
C          5.02200        1.39400        2.41900
C          6.14800        2.21900        2.43000
C          6.78200        2.52000        3.64100
C          6.29300        2.00100        4.84300
C          5.17400        1.17400        4.83700
C          4.55800        0.88000        3.62400
O          3.44300        0.02800        3.65800
C          2.77500       -0.34800        2.49900
O          1.85200       -1.15200        2.55700
H          0.86000       -0.80200       -1.12400
H          0.50000       -0.32000        0.53800
H          1.46300       -1.80900        0.19600
H          4.65000        1.52900        0.27500
H          6.54200        2.63800        1.50700
H          7.65900        3.16400        3.64700
H          6.78700        2.24100        5.78100
H          4.78600        0.76400        5.76400
