30
39537-23-0.pdb
C          4.56000       -1.19100       -0.62300
C          3.55900       -0.17000       -1.15000
N          3.27700       -0.44800       -2.56800
C          4.10200        1.26700       -0.98200
O          4.45400        1.99200       -1.91500
N          4.18700        1.70400        0.32700
C          4.77200        3.00300        0.63600
C          4.37800        3.45000        2.04800
C          4.89500        4.85200        2.36600
C          4.40600        5.33500        3.71100
N          4.88200        4.64700        4.78600
O          3.63500        6.27600        3.84500
C          6.30000        2.89800        0.50800
O          6.74900        3.18100       -0.74000
O          7.04500        2.54100        1.40900
H          4.71600       -1.07100        0.45400
H          5.53600       -1.08100       -1.10800
H          4.20800       -2.21500       -0.79000
H          2.61900       -0.25100       -0.59200
H          4.12400       -0.25400       -3.10600
H          2.60300        0.23800       -2.90900
H          4.09000        1.02600        1.07500
H          4.40200        3.74200       -0.08600
H          4.75200        2.73300        2.79000
H          3.28400        3.43400        2.14100
H          4.55200        5.56400        1.60600
H          5.98900        4.88600        2.37200
H          5.67700        4.02500        4.71900
H          4.63900        5.00800        5.70000
H          6.02000        3.23400       -1.40300
