50
39557-71-6.pdb
C          0.99800       -0.34500       -0.08500
C          2.30800       -0.06200       -0.03700
C          3.03600        0.13400        1.22200
C          2.65900       -0.52200        2.39700
C          3.33200       -0.28500        3.59500
C          4.40200        0.61000        3.64000
O          5.08400        0.95500        4.77300
C          4.72400        0.37200        6.02600
C          5.48100       -0.93500        6.26100
O          6.83800       -0.62000        6.57300
C          7.67100       -1.77700        6.66000
C          9.09700       -1.32400        6.96900
O          9.69300       -0.80100        5.78000
C         10.90800       -0.09600        6.04800
C         11.47800        0.43500        4.73400
O         10.68400        1.53200        4.27800
C         11.05500        1.95300        2.96300
C         10.05200        2.98900        2.46100
O          8.84800        2.32800        2.06100
C          7.82600        3.25700        1.69300
C          6.54600        2.49800        1.34500
O          5.91400        2.06800        2.55400
C          4.83400        1.22700        2.44400
C          4.14800        0.98500        1.24700
H          0.49300       -0.46900       -1.03700
H          0.39300       -0.44600        0.81100
H          2.86800        0.06300       -0.95900
H          1.82600       -1.22100        2.39800
H          2.98200       -0.81500        4.47200
H          3.64100        0.24800        6.12800
H          5.01900        1.09900        6.79200
H          5.44200       -1.57700        5.37500
H          5.04800       -1.46400        7.11600
H          7.63800       -2.32600        5.71200
H          7.30000       -2.41200        7.47100
H          9.69700       -2.17800        7.30000
H          9.08400       -0.55600        7.75100
H         11.62100       -0.79100        6.50500
H         10.70600        0.73300        6.73600
H         11.47500       -0.36200        3.98200
H         12.50100        0.79200        4.89000
H         11.07100        1.09000        2.28800
H         12.05400        2.39800        3.01700
H         10.46500        3.50600        1.58800
H          9.83100        3.71600        3.25100
H          8.17000        3.81200        0.81400
H          7.64300        3.95200        2.52000
H          6.79300        1.63300        0.71800
H          5.87100        3.18000        0.81600
H          4.44400        1.47500        0.32900
