30
396-01-0.pdb
N          1.23900        0.08600        0.25900
C          2.61400        0.07500        0.17000
N          3.21200       -1.10800        0.06800
C          4.55300       -1.09700        0.01500
N          5.16100       -2.35300       -0.15500
C          5.32500        0.05900        0.04800
N          6.69100        0.05800        0.04300
C          7.31100        1.26400        0.10700
C          8.79200        1.21100        0.12700
C          9.48200        0.19200       -0.55900
C         10.88100        0.14300       -0.58300
C         11.62400        1.11300        0.08100
C         10.97100        2.11400        0.79200
C          9.57300        2.14800        0.82700
C          6.54300        2.44100        0.12500
N          7.08300        3.72800        0.15900
N          5.19300        2.41300        0.13800
C          4.57200        1.23200        0.11500
N          3.24200        1.24300        0.16500
H          0.84600       -0.75800       -0.13100
H          0.86900        0.97000       -0.06300
H          4.47100       -3.08300       -0.01100
H          5.99600       -2.43900        0.41800
H          8.92600       -0.57900       -1.09100
H         11.38500       -0.65400       -1.12300
H         12.71000        1.08500        0.05300
H         11.54400        2.86800        1.32500
H          9.10200        2.92700        1.42500
H          7.77700        3.86900       -0.56900
H          6.31200        4.38900        0.09400
