22
39603-24-2.pdb
C          1.03700        0.02600        0.00600
C          2.53700        0.09800        0.00100
C          3.32000       -1.08300       -0.00300
C          4.72800       -1.04600       -0.01000
C          5.52500       -2.31400       -0.01600
C          5.31600        0.20800       -0.01000
N          6.67600        0.52000       -0.01600
C          6.87300        1.88800       -0.01600
O          7.92300        2.49200       -0.02000
C          5.45400        2.50900       -0.00800
O          5.16100        3.68200       -0.00700
C          4.54000        1.36700       -0.00500
C          3.16100        1.35000       -0.00100
H          0.68200       -1.01000        0.01000
H          0.63500        0.51700       -0.88600
H          0.64100        0.52200        0.89900
H          2.81400       -2.04900       -0.00100
H          4.87400       -3.19400       -0.01100
H          6.16200       -2.37000        0.87200
H          6.14800       -2.36900       -0.91500
H          7.44000       -0.13900       -0.02000
H          2.59500        2.27600        0.00300
