29
39608-31-6.pdb
C          0.93400       -0.63900       -0.51700
N          2.36300       -0.59600       -0.26300
C          2.95800       -1.26500        0.90900
C          3.32600       -0.68200        2.30100
O          3.09000        0.60900        2.62200
O          3.82400       -1.40600        3.13800
C          3.10600       -0.02900       -1.30600
O          2.56700        0.44500       -2.28300
O          4.45100       -0.09100       -1.12000
C          5.16700       -0.06400       -2.36300
C          6.05100        1.14700       -2.48700
C          7.36700        1.12000       -2.00900
C          8.20900        2.21700       -2.19900
C          7.74300        3.34800       -2.86800
C          6.42500        3.39500       -3.31900
C          5.57700        2.30600       -3.11400
H          0.36400       -1.12000        0.27900
H          0.72500       -1.16300       -1.46500
H          0.59900        0.40100       -0.61400
H          3.90800       -1.68900        0.56400
H          2.30600       -2.11700        1.14600
H          2.69600        1.24000        2.00600
H          4.49100       -0.11000       -3.22700
H          5.78000       -0.97300       -2.42400
H          7.75100        0.23800       -1.50100
H          9.23300        2.18500       -1.83800
H          8.40700        4.19000       -3.04100
H          6.06100        4.27600       -3.84000
H          4.54700        2.36000       -3.46500
