24
39627-84-4.pdb
N          1.12700       -0.07800       -0.36600
N          2.53400       -0.00300       -0.36700
C          3.15500        1.19900       -0.03700
O          2.56000        2.23900        0.21700
C          4.64400        1.16000       -0.02000
C          5.35400        0.35100       -0.91000
C          6.74900        0.37400       -0.91700
C          7.45600        1.21100       -0.04400
C          8.86000        1.25800       -0.06100
C          9.55400        2.09800        0.80500
C          8.85800        2.90400        1.70000
C          7.46300        2.87300        1.73000
C          6.74300        2.03400        0.86100
C          5.33800        2.00400        0.86100
H          0.82300       -0.76800       -1.05500
H          0.77300        0.82900       -0.70200
H          3.06800       -0.86500       -0.31200
H          4.83900       -0.27500       -1.63400
H          7.28200       -0.25400       -1.62900
H          9.42200        0.63800       -0.75700
H         10.64200        2.12900        0.77500
H          9.40000        3.56100        2.37500
H          6.93700        3.51200        2.43400
H          4.77700        2.64300        1.53900
