30
3963-62-0.pdb
N          0.81300        0.13200       -0.01000
C          2.27400        0.00400       -0.04800
C          2.87400       -0.91200        1.06100
C          2.38000       -2.35800        0.98100
C          2.60900       -3.15000       -0.15400
C          2.19400       -4.48400       -0.19000
C          1.54500       -5.04400        0.90600
C          1.30800       -4.27000        2.04100
C          1.72300       -2.93700        2.08000
C          4.40600       -0.87000        1.13000
C          5.04100       -1.10400        2.36300
C          6.43400       -1.16900        2.45200
C          7.21400       -0.99800        1.31200
C          6.60400       -0.74900        0.08600
C          5.21100       -0.68600       -0.00500
H          0.50800        0.76900       -0.74400
H          0.52400        0.54500        0.87600
H          2.70100        1.01000        0.04800
H          2.54300       -0.36200       -1.04600
H          2.51700       -0.48400        2.00900
H          3.12400       -2.74000       -1.01900
H          2.38400       -5.08500       -1.07500
H          1.22600       -6.08200        0.87800
H          0.80100       -4.70600        2.89800
H          1.53300       -2.35500        2.97800
H          4.45000       -1.26400        3.26300
H          6.90700       -1.37000        3.40900
H          8.29700       -1.07100        1.37700
H          7.21100       -0.62100       -0.80600
H          4.77300       -0.51800       -0.98500
