20
39635-11-5.pdb
N          1.14600        1.85800        1.88400
N          2.54900        1.73400        1.85800
C          3.15600        0.91900        0.90600
O          2.54800        0.24200        0.08400
C          4.64300        0.91800        0.93300
C          5.35600        0.77100       -0.26900
C          6.75600        0.76300       -0.26100
C          7.42700        0.89300        0.95000
O          8.79100        0.89100        1.03000
C          6.71500        1.02300        2.14000
O          7.37900        1.13700        3.32700
C          5.33000        1.03300        2.14600
H          0.83700        1.90700        2.85600
H          0.76000        0.97900        1.51600
H          3.10700        2.43400        2.34300
H          4.81900        0.66600       -1.21000
H          7.29400        0.65300       -1.19800
H          9.15100        0.78300        0.13300
H          8.32600        1.08800        3.08700
H          4.80700        1.10000        3.09700
