21
3966-32-3.pdb
C          1.05900        2.54300       -0.88900
O          2.45700        2.38800       -1.08300
C          2.85900        0.99000       -1.02500
C          2.17100        0.12400       -2.13300
O          2.31100        0.49000       -3.33600
O          1.49300       -0.85400       -1.68300
C          4.37900        0.87200       -1.05100
C          5.20800        2.00500       -1.06100
C          6.59700        1.88200       -0.99100
C          7.18100        0.62000       -0.91100
C          6.37600       -0.51600       -0.91100
C          4.98600       -0.39300       -0.97700
H          0.85300        3.61200       -0.78100
H          0.73200        2.03800        0.02500
H          0.49800        2.17600       -1.75200
H          2.54700        0.61700       -0.03900
H          4.76700        2.99700       -1.12300
H          7.21700        2.77400       -1.00000
H          8.26100        0.52300       -0.85300
H          6.82300       -1.50500       -0.85800
H          4.36700       -1.28900       -0.97300
