20
39755-95-8.pdb
C          1.32500        0.81400        0.37000
O          2.43800        0.05700       -0.09500
C          3.03100        0.49000       -1.25000
C          4.12900       -0.29300       -1.67700
C          4.85500        0.02200       -2.83600
C          4.45200        1.13000       -3.54500
N          5.01700        1.64500       -4.70700
C          4.34400        2.77800       -5.12400
O          4.57800        3.47800       -6.08400
C          3.20300        2.98000       -4.08800
O          2.35700        3.84400       -4.07700
C          3.36600        1.89300       -3.12500
C          2.63600        1.60600       -1.98900
H          0.97000        0.35800        1.29900
H          0.50300        0.78400       -0.35300
H          1.61500        1.84600        0.59500
H          4.41900       -1.16200       -1.08700
H          5.69400       -0.58900       -3.14700
H          5.81900        1.27500       -5.19500
H          1.80500        2.24400       -1.71600
