16
3977-29-5.pdb
C          1.11100        0.11000        0.01900
C          2.60800        0.06000        0.01300
C          3.29200       -1.09000        0.00400
C          4.78700       -1.04000        0.00300
O          5.39600       -2.10600       -0.03100
N          5.40400        0.18700        0.06300
C          4.66400        1.24800        0.08400
N          5.21500        2.48000        0.19900
N          3.30700        1.24400        0.02700
H          0.66800       -0.89100        0.01900
H          0.74600        0.63800       -0.86900
H          0.75000        0.63700        0.90900
H          2.83900       -2.07100        0.00000
H          6.21400        2.47200        0.01300
H          4.73700        3.25700       -0.23300
H          2.79100        2.10600        0.11600
