19
3977-23-9.pdb
C          0.95600        0.23600       -0.00200
C          2.45300        0.08500       -0.01200
C          3.12000       -1.09000       -0.01300
C          2.54300       -2.47100       -0.01300
C          4.63100       -1.03800       -0.01900
O          5.26500       -2.09100       -0.04600
N          5.26100        0.18900        0.03500
C          4.52800        1.25500        0.05200
N          5.08700        2.48100        0.16900
N          3.17800        1.25600       -0.00500
H          0.41500       -0.71200        0.00000
H          0.63000        0.79400       -0.88600
H          0.64000        0.79100        0.88800
H          1.45200       -2.49100       -0.01800
H          2.86900       -3.01900        0.87800
H          2.87700       -3.02200       -0.89900
H          6.08500        2.48100       -0.01500
H          4.60200        3.28400       -0.20600
H          2.66900        2.12700        0.06900
