39
3978-80-1.pdb
C          1.51400       -2.16400        3.71500
C          1.96700       -1.85500        2.27900
C          2.57200       -3.10000        1.61600
C          0.72600       -1.43800        1.46900
O          2.87200       -0.70500        2.24700
C          4.04400       -0.75600        2.90600
O          4.47700       -1.70100        3.54700
N          4.72300        0.43500        2.82700
C          6.18000        0.46100        3.10900
C          6.92700        1.56800        2.32900
C          6.81700        1.44800        0.82700
C          6.29500        2.50700        0.07100
C          6.12700        2.37900       -1.30900
C          6.49000        1.19200       -1.93500
O          6.28900        1.00200       -3.27000
C          7.06700        0.15600       -1.21300
C          7.24300        0.28700        0.16500
C          6.50800        0.66000        4.59800
O          5.42600        0.80000        5.39000
O          7.65200        0.72300        5.03700
H          0.76500       -2.96200        3.73100
H          1.08400       -1.27400        4.18700
H          2.34500       -2.48700        4.34700
H          1.89500       -3.95800        1.70200
H          3.52600       -3.38800        2.06200
H          2.76300       -2.92600        0.55100
H         -0.02000       -2.24100        1.42800
H          0.99700       -1.17100        0.44100
H          0.25000       -0.55100        1.90500
H          4.35000        1.06300        2.12400
H          6.57800       -0.52600        2.83600
H          7.99400        1.55000        2.58500
H          6.55700        2.55000        2.65300
H          6.01400        3.44300        0.55100
H          5.71300        3.20800       -1.87400
H          5.81100        1.76900       -3.62400
H          7.37200       -0.75600       -1.71900
H          7.71000       -0.52900        0.71200
H          4.60200        0.66200        4.88000
