20
39842-01-8.pdb
C          2.49100        1.09400        0.00800
C          1.20800        0.31600       -0.00000
C          1.22100       -1.07800        0.00200
C          0.02300       -1.80000       -0.00300
C         -1.22800       -1.15300       -0.02200
N         -2.46500       -1.83700        0.01400
C         -2.52300       -2.87900       -0.52700
S         -2.67700       -4.30800       -1.21500
C         -1.24000        0.25800       -0.00800
C         -2.52300        1.04800       -0.00700
C         -0.02600        0.97600       -0.00400
H          3.36100        0.42800        0.00200
H          2.55300        1.71500        0.90700
H          2.55400        1.73200       -0.87900
H          2.16500       -1.61800        0.00900
H          0.09500       -2.88500        0.01100
H         -3.41600        0.41800        0.02200
H         -2.58200        1.66000       -0.91300
H         -2.56000        1.70300        0.87100
H         -0.05000        2.06500       -0.00300
