30
39910-98-0.pdb
C          1.26000        0.34700       -0.66800
C          2.47600        0.00300        0.15200
O          2.84800        0.73000        1.07300
C          3.22400       -1.24600       -0.16300
C          2.82300       -2.10600       -1.18300
C          3.54800       -3.27400       -1.43600
C          4.68700       -3.61800       -0.69300
C          5.08400       -2.73300        0.31500
C          4.36200       -1.56300        0.58400
N          5.39400       -4.75500       -1.01700
C          6.82900       -4.90200       -0.74400
C          7.44000       -5.75200       -1.87300
O          6.78700       -7.03000       -1.99200
C          5.38300       -6.85800       -2.25700
C          4.69600       -6.04700       -1.14700
H          0.85700        1.30700       -0.33400
H          0.48700       -0.41400       -0.53100
H          1.52900        0.44500       -1.72400
H          1.96100       -1.89700       -1.81000
H          3.23600       -3.90400       -2.26700
H          5.95600       -2.94800        0.92800
H          4.69700       -0.90300        1.38200
H          6.96900       -5.40000        0.22300
H          7.34300       -3.93500       -0.71900
H          8.50000       -5.93500       -1.67300
H          7.36600       -5.22800       -2.83300
H          4.93200       -7.85200       -2.32800
H          5.26200       -6.36300       -3.22900
H          4.77500       -6.58500       -0.19400
H          3.63200       -5.94200       -1.37700
