21
39994-75-7.pdb
C          0.92900        0.71200        1.49100
O          2.36200        0.75000        1.53200
C          2.96000        1.10700        0.37400
O          2.41000        1.41100       -0.67900
C          4.47100        1.02300        0.49800
N          5.11200        0.79700       -0.86900
C          5.10700        2.30600        1.04700
C          4.69000        2.66200        2.46600
O          6.53000        2.09000        0.97500
H          0.57800        0.27900        2.43000
H          0.58200        0.08200        0.66600
H          0.53300        1.72800        1.40000
H          4.75800        0.13900        1.07700
H          4.73500        1.46800       -1.55100
H          4.94700       -0.14700       -1.22900
H          6.12700        0.96600       -0.76900
H          4.87900        3.15500        0.39100
H          4.93400        1.85600        3.16300
H          3.62000        2.87900        2.52900
H          5.23100        3.55300        2.80700
H          6.95300        2.48100        1.76700
