28
   
C          4.68100        4.44100       -0.14200
O          5.41700        3.60400        0.74300
C          4.69300        2.84100        1.61800
C          3.31400        2.83900        1.75100
C          2.76100        1.99800        2.69700
N          3.48300        1.18800        3.49800
C          4.83800        1.18100        3.37300
C          5.45900        2.00400        2.43200
C          5.58300        0.25900        4.27900
C          6.96300        0.34300        4.49300
C          7.58400       -0.56500        5.35200
O          8.91900       -0.60900        5.65000
C          9.75400        0.36700        5.03900
C          6.81700       -1.53100        5.98700
C          5.46100       -1.55300        5.74000
N          4.84100       -0.69400        4.90700
H          5.39900        4.97100       -0.77500
H          4.10600        5.19100        0.41100
H          4.03300        3.84800       -0.79600
H          2.65900        3.45800        1.15200
H          1.68600        1.94700        2.84400
H          6.53500        2.00500        2.29900
H          7.54000        1.11400        4.00300
H         10.77800        0.19300        5.38300
H          9.46600        1.37800        5.34500
H          9.74700        0.26600        3.94900
H          7.26800       -2.24700        6.66400
H          4.81400       -2.28300        6.21600
