18
   
C         -1.38000       -0.08000       -0.01000
C         -0.76000        1.18000       -0.04000
C          0.64000        1.29000       -0.09000
C          1.39000        0.10000       -0.09000
C          0.77000       -1.15000       -0.06000
C         -0.62000       -1.26000       -0.07000
N         -1.24000       -2.50000        0.09000
O          2.76000        0.07000       -0.12000
C          1.36000        2.59000       -0.14000
O          2.59000        2.63000       -0.17000
O          0.62000        3.71000       -0.15000
H         -2.46000       -0.14000        0.07000
H         -1.42000        2.04000        0.00000
H          1.39000       -2.05000       -0.02000
H         -0.69000       -3.28000       -0.25000
H         -2.20000       -2.54000       -0.26000
H          3.10000        0.99000       -0.14000
H         -0.34000        3.63000       -0.13000
