21
   
C          0.93600       -0.46300       -1.62800
C          2.37400       -0.39700       -2.08200
O          2.65200       -0.02400       -3.21700
N          3.25800       -0.76100       -1.08300
C          4.66600       -0.80500       -1.15600
C          5.40200       -0.45600       -2.28700
C          6.80100       -0.52900       -2.27400
C          7.48600       -0.99400       -1.15100
N          8.88400       -0.94500       -1.10500
C          6.75300       -1.28300       -0.00100
C          5.35500       -1.21000       -0.00800
H          0.29600       -0.67900       -2.48800
H          0.65200        0.49800       -1.19200
H          0.78900       -1.25800       -0.89100
H          2.85600       -1.02800       -0.19400
H          4.92400       -0.10700       -3.19700
H          7.34800       -0.21700       -3.16000
H          9.32400       -1.02800       -2.01600
H          9.29400       -1.57500       -0.42200
H          7.26300       -1.56900        0.91500
H          4.82100       -1.46400        0.90400
