25
40053-37-0.pdb
C          1.12500        0.13800        0.21900
O          2.51300        0.00500       -0.07700
C          3.06400        1.05400       -0.76100
C          4.12800        0.73700       -1.60300
C          4.77300        1.73300       -2.34900
C          4.37300        3.07300       -2.25400
C          4.99000        4.18100       -3.02000
C          4.55600        5.43700       -2.80300
C          3.48000        5.75600       -1.84200
O          3.11700        6.91300       -1.65900
N          2.91300        4.70200       -1.18900
C          3.32400        3.37500       -1.36500
C          2.67300        2.38200       -0.62700
C          6.06400        3.95600       -4.04300
H          0.79600       -0.78700        0.69900
H          0.54400        0.27000       -0.69900
H          0.93500        0.95300        0.92500
H          4.45700       -0.29600       -1.68900
H          5.59000        1.42300       -2.99200
H          4.96600        6.29100       -3.32900
H          2.17600        4.93200       -0.54100
H          1.88500        2.66700        0.06000
H          6.30300        2.90800       -4.22500
H          6.99100        4.45200       -3.73400
H          5.75700        4.37500       -5.00900
