27
400744-83-4.pdb
C          2.50000        0.00600       -0.01600
C          1.00000        0.02600       -0.00800
C          0.29600        1.23100       -0.00500
C         -1.09500        1.22600        0.00200
C         -1.79100        0.01500        0.01300
C         -1.12000       -1.22100        0.00400
C          0.28700       -1.18400       -0.01100
C         -1.86500       -2.50400        0.01100
C         -3.12200       -2.62200       -0.61400
C         -3.84400       -3.81900       -0.58800
C         -3.31100       -4.93500        0.05300
C         -4.06700       -6.20200        0.09100
O         -5.17100       -6.31900       -0.42200
C         -2.06200       -4.86000        0.66700
C         -1.35400       -3.65200        0.64900
H          2.91500        1.01900        0.00200
H          2.86400       -0.49300       -0.92000
H          2.87400       -0.52600        0.86500
H          0.82500        2.18300       -0.01000
H         -1.64300        2.16500        0.00200
H         -2.87800        0.05600        0.03900
H          0.85500       -2.11300       -0.03600
H         -3.56100       -1.77700       -1.14100
H         -4.81900       -3.87300       -1.06900
H         -3.58400       -7.04500        0.61200
H         -1.62900       -5.72100        1.16900
H         -0.39300       -3.61600        1.16100
