31
40188-45-2.pdb
C          2.84100       -1.91700        3.03900
C          2.61100       -2.46700        1.63800
C          3.18100       -1.56500        0.54600
C          4.67500       -1.34000        0.67300
O          5.10500       -0.21200        0.90500
N          5.43900       -2.47900        0.47600
C          6.84300       -2.56000        0.59900
C          7.60100       -1.58800        1.25500
C          8.99300       -1.68800        1.32400
C          9.64300       -2.76000        0.72300
O         11.00500       -2.84000        0.81900
C          8.90700       -3.74700        0.06200
C          7.50100       -3.66000        0.03700
C          9.53100       -4.89800       -0.64400
C         10.86400       -4.73500       -1.32900
O          8.91200       -5.96200       -0.70600
H          2.38100       -2.57700        3.78200
H          2.40000       -0.92100        3.15000
H          3.90800       -1.84900        3.27200
H          1.53200       -2.57100        1.47400
H          3.04500       -3.46900        1.57000
H          2.68700       -0.58600        0.57900
H          2.97500       -1.99000       -0.44300
H          4.96700       -3.29000        0.09200
H          7.13200       -0.74200        1.74900
H          9.54000       -0.91500        1.85600
H         11.34300       -2.03200        1.24200
H          6.93400       -4.44400       -0.46300
H         11.16800       -3.69100       -1.41800
H         10.78000       -5.12000       -2.35100
H         11.62700       -5.29900       -0.78600
