33
40228-90-8.pdb
O          6.44500        3.92400       -2.57300
C          6.12400        2.89300       -1.75800
O          5.33500        3.01500       -0.83300
C          6.84500        1.62000       -2.12900
C          6.46800        0.46500       -1.20100
C          7.21800       -0.80600       -1.58800
C          6.88200       -1.97400       -0.65700
C          7.62500       -3.26200       -1.03500
C          9.14500       -3.10400       -0.95500
C          9.89300       -4.34200       -1.37200
C         10.22100       -4.54100       -2.72100
C         10.96200       -5.65700       -3.10900
C         11.37100       -6.58600       -2.15500
C         11.03400       -6.40500       -0.81400
C         10.29400       -5.28900       -0.42300
H          7.08900        3.68800       -3.27000
H          7.92300        1.80700       -2.06800
H          6.58600        1.36400       -3.16300
H          5.38700        0.28900       -1.24200
H          6.70900        0.73300       -0.16500
H          8.28900       -0.58600       -1.54900
H          6.97900       -1.08200       -2.62200
H          5.80300       -2.16800       -0.69300
H          7.12100       -1.70600        0.37900
H          7.32600       -3.56900       -2.04500
H          7.30200       -4.06400       -0.35900
H          9.43800       -2.81800        0.06400
H          9.48700       -2.28900       -1.60100
H          9.91600       -3.81800       -3.47300
H         11.22600       -5.79600       -4.15400
H         11.95700       -7.45000       -2.45600
H         11.35500       -7.13000       -0.07100
H         10.04500       -5.15400        0.62700
