21
4027-57-0.pdb
C          6.34100        0.32800       -0.64700
C          5.25700        0.69300        0.35200
O          5.10200       -0.40600        1.25100
C          4.29800       -1.41900        0.81100
O          3.44100       -1.29300       -0.06000
C          4.65000       -2.71200        1.41000
C          4.07400       -3.97500        1.10000
C          4.74800       -4.89000        1.87700
C          4.62000       -6.35400        2.02800
N          5.66700       -4.16500        2.57800
N          5.63900       -2.85500        2.31600
H          6.56000        1.16700       -1.31200
H          6.03500       -0.53400       -1.25000
H          7.26200        0.03600       -0.12600
H          4.31600        0.95600       -0.14400
H          5.57200        1.56000        0.94300
H          3.27800       -4.16900        0.39400
H          3.87300       -6.75700        1.33700
H          4.31000       -6.60500        3.04800
H          5.57400       -6.85200        1.82300
H          6.34600       -4.50500        3.25500
