13
40283-46-3.pdb
N          2.04400        0.12900       -0.14400
C          0.73200       -0.13500       -0.07700
S         -0.43500        1.12300       -0.02200
C         -1.68900       -0.04400        0.01600
C         -1.13100       -1.30600        0.00600
N          0.24900       -1.35100       -0.04000
C         -3.09300        0.28900        0.05400
O         -3.32800        1.62600        0.05300
O         -4.00600       -0.52300        0.08200
H          2.38300        1.03600        0.14900
H          2.66500       -0.64500        0.06800
H         -1.69200       -2.23400        0.02800
H         -2.50400        2.14800        0.02200
