13
40357-96-8.pdb
O          1.41300        0.25400       -0.66100
C          2.45700        0.07700        0.03600
O          2.93700        0.86300        0.90800
C          3.19800       -1.18700       -0.18700
C          2.81600       -2.15200       -1.09900
S          3.88600       -3.48900       -1.09700
C          4.84800       -2.78500        0.11900
C          4.38800       -1.55100        0.52000
N          6.00400       -3.47800        0.62200
O          6.65700       -2.90900        1.51000
O          6.27900       -4.59100        0.14900
H          1.95600       -2.11900       -1.75600
H          4.85100       -0.92800        1.27800
