25
40365-61-5.pdb
C          3.43400        2.67300        3.07400
C          4.00000        1.87800        2.21000
C          4.66000        0.95000        1.20200
C          5.11600       -0.31200        1.94000
O          5.63200       -1.28700        1.03000
C          6.27000       -2.36000        1.73600
C          6.92900       -3.30900        0.73900
C          5.88700       -4.11100       -0.03300
C          4.93800       -4.80200        0.93800
C          4.37900       -3.82900        1.96500
O          5.39900       -3.07000        2.61100
H          2.97000        3.32500        3.77900
H          5.51000        1.44600        0.72300
H          3.94700        0.69000        0.41200
H          4.26100       -0.75400        2.47100
H          5.87600       -0.04400        2.68600
H          7.06800       -1.93200        2.35600
H          7.56800       -4.01500        1.28600
H          7.56000       -2.75800        0.03500
H          6.37800       -4.85400       -0.66900
H          5.31500       -3.44200       -0.69400
H          5.49600       -5.59100        1.46500
H          4.12400       -5.29000        0.39400
H          3.85500       -4.39200        2.74300
H          3.65300       -3.14500        1.50800
