21
4039-82-1.pdb
C          1.25600       -0.25800       -0.90600
C          2.43100       -0.21300       -0.65900
C          3.86600       -0.16700       -0.35800
O          4.35500        1.15000       -0.58700
C          5.74700        1.25600       -0.29200
C          6.23500        2.66600       -0.53100
C          5.38500        3.76800       -0.35700
C          5.85600        5.06900       -0.53800
C          7.18800        5.28600       -0.88100
C          8.04900        4.20300       -1.04400
C          7.57700        2.90000       -0.86600
H          0.21400       -0.29500       -1.12700
H          4.40400       -0.87300       -1.00000
H          4.03500       -0.44500        0.68900
H          6.29900        0.56000       -0.93500
H          5.92600        0.99700        0.75800
H          4.34200        3.61400       -0.08600
H          5.18100        5.91000       -0.41000
H          7.55400        6.30000       -1.01900
H          9.08900        4.37300       -1.30900
H          8.26600        2.06800       -0.99400
