15
40499-83-0.pdb
O          0.95200       -0.04600       -0.05900
C          2.36800       -0.06600       -0.04600
C          2.90600       -1.33000        0.60600
C          4.14400       -0.88400        1.37500
N          4.29400        0.56200        1.17000
C          2.94900        1.04100        0.82200
H          0.65400       -0.82000       -0.56600
H          2.73600        0.02200       -1.07600
H          3.15200       -2.08000       -0.15300
H          2.16900       -1.77700        1.28300
H          5.04000       -1.41400        1.03600
H          4.02300       -1.09400        2.44400
H          4.90900        0.71700        0.37000
H          2.98800        1.99700        0.28800
H          2.35000        1.19900        1.72700
