25
40575-42-6.pdb
C          0.96200       -0.04200        0.01600
C          2.48200       -0.06800        0.01700
C          3.00800       -1.33400        0.69000
C          4.53800       -1.37400        0.70100
C          5.07000       -2.64800        1.37600
O          4.58900       -3.78900        0.65900
C          6.60700       -2.65000        1.41000
C          7.17400       -3.88000        2.06300
C          7.94900       -3.85000        3.15200
H          0.59600        0.86700       -0.47100
H          0.56900       -0.06400        1.03700
H          0.55600       -0.90400       -0.52500
H          2.85900        0.81900        0.53900
H          2.84400       -0.01600       -1.01600
H          2.61500       -2.21100        0.16100
H          2.63500       -1.38500        1.72000
H          4.92600       -0.49000        1.22100
H          4.89700       -1.33000       -0.33500
H          4.67600       -2.71400        2.39700
H          4.98500       -3.76700       -0.23000
H          6.96000       -1.75300        1.93200
H          6.99800       -2.60600        0.38500
H          6.93200       -4.84200        1.61000
H          8.21300       -2.91800        3.63800
H          8.33400       -4.76900        3.58700
