26
40649-36-3.pdb
C          0.84800       -0.11900       -0.63100
C          2.36800       -0.05400       -0.56300
C          2.94000       -1.29200        0.13300
C          4.48200       -1.30900        0.23400
C          4.97100       -2.58400        0.94800
C          4.61100       -2.61700        2.43100
C          4.97000       -1.32200        3.13400
O          5.37900       -1.32400        4.29200
C          4.64800       -0.02700        2.41700
C          5.08400       -0.09700        0.96200
H          0.44800        0.79400       -1.08400
H          0.41500       -0.21700        0.37000
H          0.51700       -0.97100       -1.23300
H          2.64500        0.85400       -0.01900
H          2.77600        0.03000       -1.57700
H          2.61900       -2.18500       -0.41800
H          2.48700       -1.37000        1.12700
H          4.88300       -1.32200       -0.78800
H          6.06300       -2.64100        0.85200
H          4.57000       -3.47600        0.45300
H          5.15100       -3.43800        2.91600
H          3.54000       -2.79400        2.57300
H          5.17100        0.79200        2.92000
H          3.57200        0.15800        2.50600
H          6.17900       -0.17700        0.92700
H          4.83400        0.83600        0.44700
