38
4064-06-6.pdb
C          0.91100       -0.18700       -0.42400
C          2.09000        0.00800        0.52000
C          1.60300       -0.16700        1.97000
O          2.64500        1.31400        0.34900
C          3.93000        1.19300        0.95600
O          4.83000        2.19100        0.49600
C          6.19300        1.84600        0.78900
C          6.43800        1.56700        2.28300
O          5.91700        2.62500        3.09800
C          6.57400        0.71900       -0.16400
O          7.80600        0.08100        0.16300
C          7.64700       -1.26400       -0.30400
C          8.00800       -1.34100       -1.79500
C          8.57200       -2.18200        0.48600
O          6.27400       -1.61200       -0.10500
C          5.51900       -0.38600       -0.29500
C          4.35300       -0.25900        0.68900
O          3.14500       -0.92400        0.23900
H          0.14800        0.58300       -0.25700
H          0.44800       -1.17100       -0.27900
H          1.21900       -0.12200       -1.47100
H          0.99000        0.68900        2.27900
H          2.43500       -0.23700        2.67700
H          1.02900       -1.08900        2.08800
H          3.78800        1.37000        2.02600
H          6.79300        2.72700        0.53600
H          7.50600        1.46700        2.50500
H          5.95200        0.65500        2.63600
H          6.02400        3.46200        2.61200
H          6.69200        1.17300       -1.15800
H          9.02900       -0.99200       -1.97300
H          7.34700       -0.71900       -2.40700
H          7.90600       -2.36600       -2.16700
H          9.61900       -1.87000        0.38000
H          8.48200       -3.22300        0.15300
H          8.33200       -2.15300        1.55200
H          5.13100       -0.42000       -1.31900
H          4.62300       -0.75500        1.62700
