16
4066-41-5.pdb
C          3.06900       -0.28800        1.47600
C          2.55900       -0.12200        0.06100
O          1.61700        0.65100       -0.14400
C          3.20200       -0.87300       -1.00700
S          4.48300       -1.96700       -0.70100
C          4.61700       -2.40400       -2.34300
C          3.71400       -1.71100       -3.12600
C          2.89900       -0.83000       -2.35700
C          5.58500       -3.40700       -2.87000
O          6.35500       -3.96900       -2.03300
O          5.55400       -3.61600       -4.12300
H          2.45600        0.30800        2.15800
H          4.10100        0.06700        1.54700
H          2.99800       -1.33300        1.78800
H          3.65000       -1.84800       -4.20000
H          2.12200       -0.19900       -2.77100
