41
4073-98-7.pdb
C         -0.35300       -0.64900       -2.70000
C         -0.22300       -0.00600       -1.34500
C         -0.13700        1.39600       -1.27200
C         -0.06300        2.05600       -0.04100
C         -0.06100        3.56800        0.02500
C         -1.45400        4.15300        0.09600
C         -2.09500        4.32200        1.32500
C         -3.42900        4.76100        1.39800
C         -4.07500        4.85200        2.75500
C         -4.13400        5.09100        0.21700
N         -5.51500        5.35800        0.28800
C         -3.49700        4.91000       -1.02800
C         -4.16000        5.16400       -2.35700
C         -2.16200        4.45700       -1.07000
C         -0.06500        1.28900        1.12700
C         -0.14200       -0.11400        1.08400
C         -0.16800       -0.87700        2.38100
C         -0.18900       -0.77600       -0.16300
N         -0.44000       -2.16000       -0.21500
H         -0.35900        0.09600       -3.50300
H         -1.29000       -1.21200       -2.76700
H          0.49300       -1.32000       -2.88300
H         -0.16100        1.98200       -2.18800
H          0.47000        3.97600       -0.84500
H          0.52500        3.90000        0.89200
H         -1.56100        4.07400        2.24000
H         -3.37800        4.58100        3.55500
H         -4.92800        4.16800        2.81600
H         -4.40900        5.87600        2.94900
H         -5.82100        5.73400        1.17800
H         -5.88100        5.89800       -0.48500
H         -5.19400        5.50200       -2.27900
H         -4.16300        4.24500       -2.95300
H         -3.60700        5.93700       -2.90100
H         -1.68400        4.30800       -2.03700
H         -0.03700        1.79300        2.09400
H         -0.10100       -0.20700        3.24500
H          0.68500       -1.56100        2.43300
H         -1.10000       -1.44300        2.47300
H         -0.11100       -2.67500        0.59200
H         -0.16300       -2.60100       -1.08500
