14
40789-98-8.pdb
C          1.06200        0.00000       -0.01900
C          2.58200       -0.04200        0.07600
S          3.26700        1.64300       -0.05100
C          3.04700       -0.65700        1.39100
C          4.38900       -1.34700        1.39800
O          2.38800       -0.57000        2.42900
H          0.73400        0.42000       -0.97600
H          0.61300        0.58900        0.78900
H          0.65100       -1.01300        0.05600
H          2.96600       -0.64500       -0.75400
H          2.69200        2.11800        1.06700
H          4.81800       -1.38000        0.39300
H          4.26200       -2.37200        1.75400
H          5.07200       -0.80100        2.05300
