31
40784-88-1.pdb
C          2.41500       -2.13300       -0.14000
C          2.38800       -2.79900        1.22700
O          2.94100       -1.86900        2.17000
C          4.30700       -1.92600        2.29100
O          4.99700       -2.86500        1.91800
C          4.81500       -0.61200        2.84600
C          6.32700       -0.50300        2.90900
C          7.06300       -0.06300        1.80700
C          8.45900       -0.00000        1.85300
C          9.15400       -0.36900        3.00700
O         10.51900       -0.35400        3.14600
C         11.25300        0.05000        1.98500
C         12.74500        0.00200        2.26200
C          8.42300       -0.79000        4.11900
C          7.02500       -0.86600        4.07700
H          2.05400       -2.81000       -0.91800
H          3.43000       -1.80900       -0.39100
H          1.79100       -1.23300       -0.13300
H          2.93200       -3.75100        1.21500
H          1.35600       -3.02100        1.51800
H          4.39000       -0.45700        3.84300
H          4.44100        0.18700        2.19300
H          6.56500        0.23800        0.88600
H          8.97500        0.34000        0.96300
H         10.98700        1.07900        1.71800
H         11.03900       -0.62700        1.15100
H         13.01000        0.65700        3.09600
H         13.30100        0.32100        1.37300
H         13.06000       -1.01200        2.52500
H          8.94000       -1.06900        5.03200
H          6.48100       -1.21000        4.94900
