28
40807-61-2.pdb
O         -1.78900       -0.08000        0.67500
C         -1.04900       -0.03900       -0.55900
C         -0.20000        1.25200       -0.57300
C          0.96200        1.20600        0.41600
N          1.78100        0.01400        0.21900
C          1.00200       -1.20900        0.39700
C         -0.14500       -1.28300       -0.61500
C         -2.06700        0.00100       -1.70900
C         -3.45100        0.00200       -1.45500
C         -4.38200        0.16700       -2.48300
C         -3.94900        0.32800       -3.79400
C         -2.58600        0.28800       -4.08000
C         -1.65300        0.11400       -3.05100
H         -1.16200       -0.04700        1.41500
H         -0.82800        2.11900       -0.33500
H          0.22000        1.42800       -1.57200
H          0.59900        1.25300        1.45000
H          1.58900        2.09100        0.26400
H          2.56500        0.02300        0.87300
H          0.63000       -1.27600        1.42700
H          1.66200       -2.07200        0.25100
H         -0.73000       -2.18800       -0.41200
H          0.29200       -1.40000       -1.61500
H         -3.82500       -0.10400       -0.43800
H         -5.44300        0.18800       -2.25000
H         -4.67100        0.48700       -4.58900
H         -2.24800        0.40900       -5.10600
H         -0.59600        0.09700       -3.31000
