38
40817-08-1.pdb
C          0.91200        1.66300        0.98400
C          2.43000        1.63300        0.92700
C          2.94400        1.79300       -0.50300
C          4.47200        1.75000       -0.53700
C          5.00400        1.89600       -1.96500
C          6.51100        1.88500       -2.02600
C          7.24300        0.78800       -1.56000
C          8.64100        0.78500       -1.61600
C          9.35800        1.86200       -2.16400
C          8.60500        2.94700       -2.64700
C          7.20700        2.96400       -2.57200
C         10.83900        1.85400       -2.23600
C         11.56300        0.66000       -2.41500
C         12.96200        0.65200       -2.48200
C         13.67300        1.84800       -2.38600
C         12.98200        3.04600       -2.21100
C         11.58400        3.04400       -2.12900
C         15.10400        1.84500       -2.46600
N         16.26200        1.84500       -2.53500
H          0.57200        1.55100        2.01800
H          0.48200        0.84800        0.39400
H          0.52400        2.61100        0.59800
H          2.78600        0.68400        1.34600
H          2.83000        2.43500        1.55700
H          2.59100        2.74400       -0.91900
H          2.53900        0.99200       -1.13300
H          4.81100        0.80300       -0.10000
H          4.87900        2.55100        0.09300
H          4.62300        2.83200       -2.39400
H          4.62400        1.08700       -2.60000
H          6.73300       -0.07800       -1.14300
H          9.16100       -0.08100       -1.21100
H          9.09600        3.80200       -3.10600
H          6.67100        3.83100       -2.95100
H         11.04300       -0.29100       -2.51900
H         13.48300       -0.29400       -2.61500
H         13.51800        3.99000       -2.13500
H         11.08200        3.99600       -1.96900
