29
40899-71-6.pdb
O          3.67500       -0.80100        0.02900
S          2.55900        0.12500       -0.04200
O          2.08500        0.83800        1.12900
N          3.00900        1.31600       -1.17400
C          2.63900        2.63300       -1.05700
C          3.14600        3.30100       -2.14800
C          3.78600        2.34300       -2.98400
C          4.44700        2.44000       -4.22500
C          4.96400        1.28900       -4.82400
C          4.84400        0.05400       -4.19800
C          4.20700       -0.07000       -2.95700
C          3.67600        1.08900       -2.36300
C          1.16900       -0.69700       -0.77300
C          1.27500       -2.04100       -1.14500
C          0.16500       -2.69600       -1.67900
C         -1.04400       -2.01600       -1.82800
C         -1.15100       -0.68000       -1.43600
C         -0.04600       -0.01600       -0.90300
H          2.07800        2.99000       -0.20300
H          3.05600        4.36400       -2.33800
H          4.55000        3.40300       -4.71900
H          5.46500        1.36300       -5.78700
H          5.25900       -0.83200       -4.67500
H          4.14900       -1.04300       -2.47800
H          2.20500       -2.58900       -1.01000
H          0.23800       -3.74200       -1.96800
H         -1.90900       -2.53200       -2.23800
H         -2.10300       -0.16300       -1.53400
H         -0.14900        1.01600       -0.57300
