24
4096-21-3.pdb
C          1.22700        0.17200       -0.18600
C          0.56300       -1.10200        0.29800
C         -0.87500       -0.94100       -0.18100
N         -1.12400        0.49800       -0.07800
C          0.14800        1.23000        0.01900
C         -2.25200        1.06500        0.49700
C         -3.26100        0.31800        1.11800
C         -4.37000        0.92600        1.72400
C         -4.51100        2.30800        1.69900
C         -3.55000        3.07800        1.06100
C         -2.44200        2.46000        0.46700
H          1.47900        0.08900       -1.24800
H          2.14300        0.40500        0.36600
H          0.58900       -1.14900        1.39300
H          1.03800       -2.00500       -0.09700
H         -1.53400       -1.58500        0.40400
H         -0.96200       -1.23800       -1.23500
H          0.26400        1.68300        1.01200
H          0.22500        2.01200       -0.74400
H         -3.20900       -0.76300        1.17600
H         -5.11700        0.31200        2.21800
H         -5.36900        2.78000        2.16900
H         -3.65400        4.15800        1.01800
H         -1.72400        3.09800       -0.04100
