30
4097-22-7.pdb
N          5.74000       -8.99900        0.58600
C          5.55000       -7.67700        0.96800
N          4.86000       -7.42600        2.10300
C          4.68500       -6.13900        2.47500
N          5.10900       -5.01800        1.85300
C          5.77900       -5.32300        0.72800
N          6.37500       -4.46400       -0.15900
C          6.87800       -5.22600       -1.18200
N          6.70800       -6.51500       -0.97600
C          6.02700       -6.58800        0.22000
C          6.39200       -3.01400       -0.06200
C          7.04500       -2.45900        1.19900
C          8.49400       -2.33000        0.79900
C          8.39000       -1.91900       -0.65700
C          9.57200       -2.40700       -1.49300
O          9.40600       -2.01500       -2.85300
O          7.16300       -2.48800       -1.16900
H          5.05600       -9.61900        0.99600
H          5.94200       -9.10500       -0.40400
H          4.13100       -5.98900        3.39800
H          7.35700       -4.79500       -2.05300
H          5.35500       -2.68100       -0.16600
H          6.91100       -3.06400        2.09900
H          6.64300       -1.45900        1.40500
H          8.99300       -3.30000        0.90300
H          9.04400       -1.60100        1.40200
H          8.28400       -0.83200       -0.75400
H          9.64500       -3.50000       -1.47600
H         10.51300       -1.98700       -1.12600
H          8.51500       -2.31400       -3.11500
