35
4098-06-0.pdb
C          0.96100        0.99400       -1.33400
C          2.34000        1.46300       -0.99100
O          2.60400        2.56300       -0.53100
O          3.24700        0.48500       -1.26200
C          4.59700        0.79500       -0.89600
C          5.33700        1.58500       -1.98900
O          6.67400        1.86800       -1.51300
C          7.59200        0.87200       -1.71000
C          7.41300       -0.20600       -2.48100
C          6.16700       -0.40800       -3.29000
O          6.56900       -0.83100       -4.60700
C          6.09300       -2.02700       -5.03700
C          6.68900       -2.38300       -6.36600
O          5.33100       -2.75500       -4.41700
C          5.34700        0.89400       -3.37100
O          5.97900        1.80300       -4.31900
C          5.26100        2.17500       -5.40600
C          6.08500        3.02900       -6.32500
O          4.10800        1.84000       -5.64300
H          0.24900        1.80200       -1.14300
H          0.69400        0.13800       -0.71000
H          0.91300        0.73100       -2.39400
H          5.09600       -0.15800       -0.69100
H          4.63500        1.33300        0.06100
H          4.85100        2.56000       -2.11000
H          8.49900        1.06900       -1.15300
H          8.18800       -0.96300       -2.54200
H          5.56900       -1.17500       -2.78400
H          7.07900       -1.49300       -6.86800
H          5.91500       -2.81700       -7.00400
H          7.50300       -3.09700       -6.21700
H          4.32500        0.65800       -3.68900
H          6.99300        3.37500       -5.82400
H          5.50600        3.90700       -6.62000
H          6.36600        2.44400       -7.20500
