30
4099-85-8.pdb
C          2.86500       -1.04600        0.16500
O          2.30200        0.25100        0.32100
C          2.93000        1.21500       -0.53200
O          4.27500        1.44700       -0.07500
C          4.13100        2.33100        1.05800
C          5.45800        3.02400        1.35000
O          6.42400        2.06800        1.79300
C          2.96600        3.25700        0.72400
O          3.39300        4.51000        0.20600
C          3.19900        4.47400       -1.20400
C          4.53800        4.30700       -1.92100
C          2.54100        5.78500       -1.62700
O          2.35200        3.38100       -1.55300
C          2.21300        2.56100       -0.38400
H          2.51400       -1.67100        0.99000
H          3.95800       -1.01900        0.20000
H          2.53100       -1.48700       -0.77900
H          2.94300        0.86000       -1.56900
H          3.86700        1.68500        1.90700
H          5.34500        3.76900        2.14100
H          5.87000        3.51200        0.46200
H          6.22300        1.23400        1.32500
H          2.35500        3.43600        1.61700
H          5.26700        5.04800       -1.57800
H          4.42100        4.39000       -3.00600
H          4.96500        3.31700       -1.73500
H          3.14200        6.64500       -1.30700
H          1.55400        5.88500       -1.16000
H          2.39000        5.83000       -2.70900
H          1.14200        2.44100       -0.17200
