27
4101-30-8.pdb
C          0.95100       -0.11500        0.56600
O          2.30700       -0.00900        0.14800
C          2.97500        1.14500        0.46100
C          2.58700        1.96600        1.53300
C          3.31900        3.10500        1.89800
N          2.78000        3.95300        2.88900
C          4.42400        3.47800        1.11600
C          4.82300        2.66400        0.04600
C          4.11000        1.49700       -0.28500
O          4.66100        0.85100       -1.36300
C          4.04300       -0.33200       -1.84900
C          5.21300        4.69200        1.48900
C          5.93000        5.48800        0.42900
O          5.25700        5.04700        2.66900
H          0.53000       -1.01400        0.10800
H          0.36300        0.74400        0.22300
H          0.87800       -0.23800        1.65200
H          1.71000        1.72600        2.12500
H          2.29400        3.46300        3.63300
H          3.50400        4.57700        3.26900
H          5.70400        2.90600       -0.53900
H          4.60100       -0.65800       -2.73300
H          3.01400       -0.14600       -2.17300
H          4.10500       -1.13900       -1.11200
H          5.75800        5.11200       -0.57900
H          7.00300        5.47400        0.64000
H          5.56300        6.51800        0.46500
