39
4105-92-4.pdb
C          1.40400        0.16800        0.84700
C          2.73400       -0.49700        0.54500
O          3.64100       -0.12800        1.59100
C          4.32700        1.01800        1.37800
O          4.44900        1.62700        0.32600
C          4.89400        1.48700        2.65900
C          4.23400        1.24400        3.86900
C          4.79100        1.69500        5.07100
C          6.00400        2.38700        5.05700
C          6.65400        2.64000        3.84000
C          6.09500        2.19800        2.63800
C          8.00600        3.24400        3.80300
O          8.79200        3.06400        2.89100
O          8.23900        3.89800        4.96300
C          9.62000        4.03300        5.31300
C          9.99900        2.81000        6.12900
C          4.19700        1.33200        6.37800
O          4.84900        1.22700        7.40200
O          2.88200        1.05500        6.21600
C          2.30700        0.21500        7.22400
C          2.46600       -1.22000        6.75500
H          0.64800       -0.09700        0.10500
H          1.51400        1.25800        0.87000
H          1.05300       -0.12900        1.84100
H          3.11000       -0.22100       -0.44700
H          2.62800       -1.58600        0.56500
H          3.30400        0.68100        3.87400
H          6.45500        2.68500        6.00200
H          6.60900        2.37500        1.69300
H          9.72300        4.94000        5.91800
H         10.26300        4.14400        4.43400
H          9.35600        2.73100        7.01400
H         11.04200        2.85100        6.44900
H          9.84000        1.89300        5.55100
H          1.24600        0.47100        7.30800
H          2.76500        0.37000        8.20800
H          1.98800       -1.35200        5.77700
H          2.02700       -1.92400        7.46500
H          3.52500       -1.46600        6.61800
