32
4107-98-6.pdb
C          3.30900        1.01500        0.77700
C          2.51200       -0.07700        0.05300
C          2.32700        0.23700       -1.43700
N          3.03800       -1.44700        0.29100
C          2.08900       -2.56700        0.52000
C          1.57600       -2.58800        1.96200
C          0.90900       -2.56000       -0.45700
C          4.40100       -1.75900        0.24900
C          4.95100       -2.75400        1.07800
C          6.30600       -3.10900        1.03500
C          7.16200       -2.47100        0.15000
C          6.66100       -1.47100       -0.67200
C          5.30500       -1.12000       -0.61300
H          2.82500        1.98900        0.64600
H          4.33300        1.12100        0.41000
H          3.35600        0.81200        1.85200
H          1.51300       -0.01500        0.50400
H          3.06600       -0.24300       -2.08100
H          2.35600        1.31500       -1.62700
H          1.35000       -0.11600       -1.78200
H          2.59400       -3.52200        0.33100
H          1.02000       -1.67900        2.20900
H          2.39500       -2.67700        2.68300
H          0.90900       -3.44300        2.11700
H          0.23200       -1.71700       -0.28400
H          0.31700       -3.47500       -0.34200
H          1.25700       -2.52000       -1.49300
H          4.33400       -3.27100        1.80700
H          6.68200       -3.88400        1.69800
H          8.20900       -2.74700        0.10300
H          7.31800       -0.96000       -1.36600
H          4.97900       -0.33900       -1.28800
