32
4110-44-5.pdb
C          0.81200       -0.08900       -0.01000
C          2.33000       -0.08800       -0.00800
C          2.90600        0.93700        0.97300
C          4.43600        0.90000        0.93300
C          5.07700        1.90600        1.89800
C          6.64000        1.92000        1.91100
C          7.18200        0.53600        2.31600
C          7.17900        2.28000        0.51300
C          7.08700        2.99400        2.94900
C          8.59200        3.17700        3.12500
H          0.43800       -0.83300       -0.72100
H          0.41800        0.88900       -0.30500
H          0.41700       -0.33800        0.98000
H          2.68900        0.12800       -1.02100
H          2.68800       -1.09100        0.25300
H          2.55400        0.71800        1.98800
H          2.55100        1.94100        0.71200
H          4.75900        1.10700       -0.09300
H          4.76100       -0.11600        1.18000
H          4.71400        1.69300        2.91300
H          4.71200        2.91100        1.64600
H          6.88800       -0.24100        1.60500
H          6.81200        0.24500        3.30600
H          8.27600        0.52100        2.34800
H          6.88500        1.54300       -0.24000
H          8.27400        2.31200        0.49700
H          6.80900        3.25900        0.18900
H          6.66200        2.74500        3.93000
H          6.66200        3.96600        2.66800
H          9.07600        2.26000        3.47500
H          8.78500        3.95100        3.87500
H          9.07600        3.49600        2.19800
