29
41175-50-2.pdb
O          3.35600        0.06500       -0.05100
C          2.05800        0.50100       -0.03600
C          1.78900        1.86400       -0.02500
C          0.46900        2.29700       -0.03500
C         -0.58500        1.36900       -0.02900
C         -2.00000        1.88500       -0.09900
C         -2.98600        0.86500        0.44300
C         -2.73100       -0.47900       -0.21900
N         -1.37500       -0.94400        0.06400
C         -1.08200       -2.34000       -0.25000
C          0.21200       -2.77400        0.41500
C          1.35500       -1.91700       -0.10100
C          1.02400       -0.44700       -0.03100
C         -0.32400       -0.01900       -0.02700
H          3.94200        0.83500        0.02400
H          2.58800        2.59900       -0.01700
H          0.25700        3.36300       -0.04400
H         -2.23300        2.10900       -1.14800
H         -2.09800        2.81700        0.46900
H         -4.01300        1.19600        0.25100
H         -2.86900        0.77300        1.53100
H         -2.88800       -0.41500       -1.30300
H         -3.45600       -1.20300        0.17000
H         -1.03000       -2.48000       -1.33700
H         -1.89500       -2.97700        0.12100
H          0.41300       -3.83100        0.20800
H          0.12700       -2.66400        1.50400
H          1.56600       -2.17000       -1.14900
H          2.25300       -2.14500        0.48400
