54
41203-22-9.pdb
C          0.65500        0.05100        0.49200
N          2.14400        0.02200        0.23900
C          2.73700        1.10600       -0.64800
C          2.25000        2.53300       -0.35100
C          2.03200        3.38800       -1.61900
N          0.78400        2.91500       -2.42600
C         -0.36900        3.91000       -2.18200
C          1.08500        2.79100       -3.94200
C          0.05000        1.94500       -4.77700
N          0.49900        0.49900       -5.18500
C          1.89700        0.43500       -5.76200
C         -0.02200       -0.59600       -4.25800
C          0.53100       -2.01500       -4.49000
C          0.76400       -2.82500       -3.19000
N          2.04800       -2.45400       -2.39400
C          3.00100       -1.50500       -3.02500
C          1.84900       -2.41300       -0.85600
C          2.71000       -1.42100        0.01800
H          0.40200        0.96400        1.02800
H          0.39700       -0.80500        1.11400
H          0.14900        0.00900       -0.48200
H          2.52700        0.25600        1.16400
H          2.48300        0.83600       -1.66700
H          3.82400        1.04600       -0.52900
H          3.03100        3.02500        0.24500
H          1.34600        2.57300        0.25700
H          2.90500        3.34000       -2.27800
H          1.87100        4.44100       -1.35200
H          0.43400        2.03100       -2.05100
H         -0.08500        4.87600       -2.60600
H         -0.52300        3.97100       -1.10100
H         -1.26000        3.50500       -2.66500
H          2.08600        2.36000       -4.01200
H          1.12400        3.81600       -4.32200
H         -0.11700        2.45100       -5.73400
H         -0.91000        1.83900       -4.26500
H         -0.06400        0.33900       -6.04700
H          2.61600        0.49700       -4.94700
H          2.02200        1.27900       -6.44600
H          2.01800       -0.49900       -6.31300
H         -1.10900       -0.61100       -4.41600
H          0.16500       -0.25800       -3.23500
H          1.41400       -2.06300       -5.12400
H         -0.24000       -2.56700       -5.05900
H          0.87300       -3.89000       -3.42800
H         -0.09400       -2.71800       -2.51800
H          2.58700       -3.34000       -2.49600
H          2.50100       -0.54100       -3.07000
H          3.24300       -1.85400       -4.03000
H          3.91500       -1.44500       -2.43800
H          2.08500       -3.43400       -0.53200
H          0.78400       -2.25900       -0.67500
H          3.74300       -1.32100       -0.32700
H          2.74900       -1.83600        1.03200
