24
41220-48-8.pdb
O          1.12000        0.32900       -0.30300
C          2.34000        0.18700        0.02900
O          2.87400       -0.22900        1.08000
C          3.25700        0.42700       -1.20500
C          4.72300        0.02000       -1.10600
C          4.97900       -1.44300       -1.38400
C          6.21900       -1.99300       -1.03400
C          6.48700       -3.34100       -1.26800
C          5.51400       -4.14700       -1.85700
C          4.28300       -3.60500       -2.22200
C          4.00800       -2.24700       -2.00400
C          2.65300       -1.69500       -2.34800
N          2.63800       -0.21200       -2.45400
H          3.21100        1.50800       -1.39400
H          5.12000        0.28500       -0.11900
H          5.29600        0.59300       -1.84800
H          6.98000       -1.38000       -0.55300
H          7.44000       -3.76500       -0.97200
H          5.71400       -5.20500       -2.01300
H          3.53100       -4.26100       -2.65800
H          1.91900       -1.98900       -1.59000
H          2.31800       -2.06500       -3.32300
H          1.64800        0.08600       -2.37500
H          3.05600        0.13700       -3.31500
