59
4130-54-5.pdb
C          0.85400        0.08600        0.02800
C          2.37200        0.07200        0.02700
C          2.90800       -1.19000        0.69900
C          4.43500       -1.20600        0.70200
C          4.95900       -2.46900        1.37600
C          6.48400       -2.48400        1.37900
C          7.00200       -3.75000        2.05000
C          8.52400       -3.76400        2.05800
C          9.04300       -5.03200        2.72600
C         10.56600       -5.04500        2.73500
C         11.08300       -6.31300        3.40200
C         12.60600       -6.33000        3.41300
C         13.12400       -7.59800        4.08200
C         14.64700       -7.61200        4.09200
C         15.18300       -8.87500        4.76000
C         16.70800       -8.86500        4.75600
C         17.28300      -10.11300        5.41500
C         18.79800      -10.11400        5.35900
O         19.47200       -9.24100        4.82200
N         19.35800      -11.23200        5.96600
N         20.76300      -11.33200        6.04100
H          0.48300        0.99400       -0.45600
H          0.46400        0.05900        1.05000
H          0.45500       -0.77800       -0.51400
H          2.74500        0.96000        0.55100
H          2.73600        0.12700       -1.00500
H          2.53400       -2.07600        0.17200
H          2.53800       -1.24600        1.73000
H          4.81300       -0.32100        1.23000
H          4.80700       -1.15300       -0.32800
H          4.58400       -3.35400        0.84700
H          4.58600       -2.52300        2.40400
H          6.86200       -1.60300        1.90900
H          6.85800       -2.43100        0.35100
H          6.62500       -4.63300        1.52000
H          6.62600       -3.80600        3.08000
H          8.90100       -2.88400        2.59100
H          8.90100       -3.70800        1.02900
H          8.66700       -5.91400        2.19200
H          8.66600       -5.08900        3.75500
H         10.94200       -4.16400        3.26900
H         10.94300       -4.98600        1.70700
H         10.70600       -7.19300        2.86700
H         10.70500       -6.37100        4.43000
H         12.98200       -5.44900        3.94700
H         12.98400       -6.27100        2.38500
H         12.74800       -8.47900        3.54600
H         12.74500       -7.65600        5.10900
H         15.01900       -6.72700        4.62400
H         15.02200       -7.55000        3.06300
H         14.81500       -9.76000        4.22700
H         14.81200       -8.93700        5.79000
H         17.07200       -7.97200        5.27900
H         17.07000       -8.79300        3.72200
H         16.92200      -11.01000        4.89800
H         16.96600      -10.16700        6.46300
H         18.79000      -11.82500        6.57000
H         21.14000      -10.43700        5.69200
H         21.06700      -12.01100        5.33700
