42
41424-11-7.pdb
C          0.81100        1.23000        1.78700
C          2.30800        1.40300        1.96000
C          2.94500        0.10700        2.44800
C          4.44900        0.27500        2.62300
C          5.08400       -1.02400        3.10900
C          6.58500       -0.85100        3.27900
O          7.14000       -2.08700        3.73700
C          8.49100       -2.07500        3.96300
C          9.32800       -0.98400        3.74200
C         10.68600       -1.05600        4.05700
C         11.24500       -2.22100        4.60100
C         10.37300       -3.29200        4.86400
C          9.02700       -3.24500        4.49500
C         12.69200       -2.33700        4.89300
C         13.47400       -1.22100        5.22900
C         14.83100       -1.35000        5.55800
C         15.44300       -2.60900        5.56400
C         14.67600       -3.73300        5.24100
C         13.33800       -3.58700        4.86200
C         16.86300       -2.74800        5.87400
N         17.98700       -2.84800        6.09400
H          0.35800        2.16100        1.43600
H          0.34100        0.95400        2.73600
H          0.59400        0.44400        1.05500
H          2.50300        2.20900        2.67700
H          2.75500        1.70300        1.00400
H          2.74500       -0.69700        1.73000
H          2.49300       -0.19100        3.40200
H          4.64800        1.08100        3.34100
H          4.90100        0.57300        1.66900
H          4.88600       -1.83600        2.40500
H          4.64000       -1.32800        4.06400
H          6.76500       -0.04400        4.00700
H          7.03800       -0.58600        2.31500
H          8.94900       -0.05000        3.34400
H         11.29500       -0.17600        3.87600
H         10.73900       -4.18000        5.37600
H          8.39700       -4.11600        4.65500
H         13.02500       -0.23100        5.25600
H         15.39400       -0.46200        5.82300
H         15.10800       -4.73000        5.28500
H         12.79100       -4.47100        4.53800
