22
4149-06-8.pdb
N          1.23600       -0.02600        0.14000
C          2.59500        0.02600        0.10300
N          3.37400       -1.00800        0.06700
N          4.67200       -0.52800        0.09500
C          4.75500        0.87200        0.10600
O          5.72100        1.61900        0.10800
C          3.33100        1.33200        0.12000
C          5.72500       -1.45400        0.29100
C          7.00200       -1.04000        0.69200
C          8.00200       -1.97500        0.98800
C          7.74900       -3.33600        0.86200
C          6.49700       -3.76600        0.42600
C          5.49300       -2.83200        0.14900
H          0.82300       -0.92400       -0.09100
H          0.69400        0.78800       -0.12100
H          3.09500        1.92000       -0.76900
H          3.11500        1.87700        1.04100
H          7.23900        0.01200        0.82700
H          8.97200       -1.62900        1.33500
H          8.52200       -4.06000        1.10200
H          6.29300       -4.82700        0.31500
H          4.52200       -3.19400       -0.18100
