31
41532-84-7.pdb
C          1.20800        0.60400       -0.10100
C          2.09100       -0.30800        0.68900
N          1.96100       -0.38900        1.98200
C          2.57200       -1.60100        2.33500
C          2.40700       -2.20700        3.56200
C          2.72300       -3.55700        3.66900
C          3.21800       -4.28000        2.55900
C          3.37800       -5.67200        2.65800
C          3.84000       -6.41200        1.56700
C          4.20600       -5.77100        0.39600
C          4.06300       -4.38800        0.28700
C          3.50200       -3.62900        1.33700
C          3.14600       -2.27500        1.24000
C          3.10400       -1.30400        0.07400
C          2.60900       -1.85200       -1.26100
C          4.47600       -0.62700       -0.08600
H          1.35700        1.64100        0.20200
H          0.16900        0.32200        0.11600
H          1.36000        0.50700       -1.17400
H          1.96000       -1.66400        4.38600
H          2.52900       -4.06000        4.61400
H          3.10900       -6.19700        3.57100
H          3.91300       -7.49500        1.64300
H          4.58700       -6.34100       -0.44500
H          4.38300       -3.91900       -0.63400
H          1.61400       -2.29700       -1.17000
H          3.27900       -2.59900       -1.69000
H          2.55200       -1.05900       -2.01500
H          4.77300       -0.07700        0.81600
H          4.47300        0.09500       -0.91000
H          5.26300       -1.36500       -0.28900
