27
4160-51-4.pdb
C          1.98500        0.26800       -2.15600
C          3.19300        0.19700       -1.23500
C          3.39500       -1.22000       -0.70500
C          4.60900       -1.32100        0.20500
O          4.99300       -0.36500        0.87700
C          5.33400       -2.62600        0.31300
C          4.90600       -3.78400       -0.34600
C          5.64200       -4.97200       -0.24900
C          6.79900       -5.02400        0.52700
O          7.59600       -6.12100        0.70300
C          7.22700       -7.30000       -0.00300
C          7.21400       -3.87800        1.20500
C          6.49100       -2.68400        1.10000
H          1.87000        1.28100       -2.55500
H          1.06800        0.00600       -1.61900
H          2.09500       -0.41900       -3.00200
H          3.06100        0.90300       -0.40600
H          4.08800        0.51400       -1.78400
H          3.51300       -1.87700       -1.57000
H          2.51900       -1.54400       -0.13200
H          4.00500       -3.80400       -0.94900
H          5.27900       -5.83800       -0.79300
H          7.93700       -8.08800        0.26500
H          7.29000       -7.14500       -1.08400
H          6.22800       -7.64200        0.28900
H          8.11100       -3.90800        1.82000
H          6.83900       -1.80400        1.63500
