30
4164-21-0.pdb
C          0.86000        0.16500        0.13200
C          2.38600        0.13200        0.09400
C          2.91700        1.53800       -0.21700
N          2.87900       -0.37800        1.38200
C          4.34700       -0.48100        1.39200
C          4.95600       -1.05900        2.68800
O          4.47900       -2.39600        2.87100
C          6.48300       -1.04300        2.68300
C          7.24200       -0.58100        1.58800
C          8.63200       -0.50700        1.64700
C          9.29800       -0.90700        2.79900
C          8.57200       -1.38800        3.88700
C          7.17700       -1.45900        3.83000
H          0.45900        0.54500       -0.81400
H          0.49400        0.81200        0.93700
H          0.44700       -0.83800        0.28600
H          2.69000       -0.54900       -0.71100
H          2.72200        2.22800        0.61200
H          2.44600        1.94500       -1.11600
H          3.99600        1.53300       -0.40800
H          2.49400       -1.30600        1.57300
H          4.76700        0.51900        1.26400
H          4.64800       -1.11500        0.54800
H          4.61100       -0.46200        3.54200
H          5.02100       -2.97000        2.29800
H          6.77400       -0.24800        0.66600
H          9.19400       -0.12600        0.79700
H         10.38100       -0.83500        2.85400
H          9.09200       -1.70000        4.79000
H          6.62500       -1.82300        4.69500
