17
4166-53-4.pdb
C          1.01200        0.10900        0.05300
C          2.54200        0.09000       -0.03700
C          3.06000        1.08100       -1.05700
C          2.67600        0.68100       -2.45400
O          2.37400        1.52800       -3.28600
O          2.72900       -0.62500       -2.78800
C          2.64900       -1.58900       -1.85100
O          2.28800       -2.72900       -2.15600
C          3.06500       -1.26900       -0.44800
H          0.65800        1.09700        0.36500
H          0.65800       -0.62600        0.78300
H          0.53900       -0.12400       -0.90600
H          2.94200        0.34600        0.95100
H          4.15300        1.15500       -1.01800
H          2.65100        2.08100       -0.85100
H          4.15900       -1.31000       -0.40000
H          2.67600       -2.04200        0.22700
