30
41775-76-2.pdb
C         -2.50100       -0.94600        0.30900
C         -2.42800        0.48200       -0.26900
O         -1.32200        1.10300        0.36300
C         -0.88900        2.33800       -0.22600
C          0.56300        2.52500        0.22300
O          1.32000        1.55600       -0.50900
C          2.40000        0.96400        0.21900
C          2.45800       -0.49400       -0.23900
O          1.31400       -1.12800        0.35200
C          0.88200       -2.31800       -0.28400
C         -0.50400       -2.62200        0.30200
N         -1.56700       -1.85800       -0.45600
H         -3.50100       -1.37000        0.18600
H         -2.20700       -0.96700        1.36400
H         -3.34100        1.03900       -0.04200
H         -2.28900        0.46000       -1.35700
H         -1.52700        3.15700        0.11900
H         -0.93300        2.26500       -1.31900
H          0.63500        2.36500        1.30500
H          0.93900        3.51900       -0.03000
H          2.22700        1.00000        1.30200
H          3.31900        1.50200       -0.02600
H          3.37300       -0.98800        0.10600
H          2.39500       -0.54800       -1.33200
H          1.58800       -3.12800       -0.06200
H          0.83200       -2.18500       -1.36700
H         -0.56900       -2.35300        1.36200
H         -0.75900       -3.67900        0.17000
H         -2.13000       -2.52200       -1.00200
H         -1.07200       -1.26700       -1.14400
