14
4177-16-6.pdb
C          2.58600       -0.91500        0.85200
C          2.27200        0.05300       -0.02000
C          3.01400        0.30300       -1.26200
C          2.63700        1.31100       -2.14500
N          3.29900        1.57100       -3.30300
C          4.36500        0.77600       -3.54200
C          4.75000       -0.22600       -2.67200
N          4.08900       -0.48400       -1.52100
H          2.01000       -1.06500        1.75800
H          3.42700       -1.58300        0.68200
H          1.42500        0.69900        0.18400
H          1.78200        1.95000       -1.95300
H          4.90600        0.97000       -4.46200
H          5.60900       -0.85600       -2.87500
