23
4179-19-5.pdb
C          1.38200        0.02900        0.81800
O          2.46700        0.06400       -0.10400
C          3.07500        1.27900       -0.27700
C          2.68600        2.46900        0.33900
C          3.37900        3.65900        0.09200
C          2.95900        4.93600        0.75600
C          4.46900        3.63900       -0.78600
C          4.87000        2.45600       -1.41100
O          5.95000        2.58700       -2.24000
C          6.40900        1.40900       -2.89100
C          4.16700        1.27600       -1.15400
H          1.00400       -0.99600        0.85900
H          0.56100        0.67300        0.48400
H          1.71400        0.30300        1.82500
H          1.84200        2.50000        1.02000
H          2.10400        4.77800        1.42000
H          2.66600        5.67500        0.00400
H          3.78000        5.33500        1.36000
H          5.01700        4.55400       -0.99000
H          7.27800        1.68200       -3.50000
H          5.64500        1.00700       -3.56400
H          6.73600        0.65700       -2.16600
H          4.44300        0.33700       -1.61900
