23
4180-23-8.pdb
C          1.40200        0.43500       -0.65400
O          2.53000       -0.05800        0.06300
C          3.17900       -1.12300       -0.50000
C          2.81000       -1.76700       -1.67700
C          3.54800       -2.85800       -2.15400
C          4.67300       -3.31800       -1.46300
C          5.43600       -4.49800       -1.90100
C          5.59000       -4.88600       -3.17600
C          6.35800       -6.10000       -3.58900
C          5.03700       -2.67100       -0.27600
C          4.29900       -1.58000        0.20100
H          0.98500        1.27900       -0.09700
H          0.62000       -0.32800       -0.73400
H          1.69700        0.80200       -1.64300
H          1.94600       -1.45800       -2.25400
H          3.21300       -3.34800       -3.06400
H          5.90100       -5.07600       -1.10400
H          5.15500       -4.30900       -3.98900
H          6.76300       -6.64500       -2.73100
H          7.19200       -5.81300       -4.23700
H          5.70700       -6.78000       -4.14700
H          5.90200       -3.00600        0.29200
H          4.59800       -1.08900        1.12400
