32
41840-28-2.pdb
C          0.11300        1.02400        2.44200
C          0.09500        0.30300        1.12700
C          0.08900        1.00900       -0.06000
C          0.06900        0.26300       -1.22400
C          0.05000        0.94100       -2.56200
N          0.05800       -1.08600       -1.21800
C          0.09100       -1.69100       -0.01500
S         -0.01600       -3.45900        0.01400
C          1.69500       -3.85400        0.00700
O          2.55700       -2.98800        0.04000
O          1.97200       -5.19800       -0.04400
C          3.35200       -5.65700       -0.09000
C          4.11000       -5.27200        1.18700
C          3.31300       -7.19200       -0.17000
C          4.05700       -5.14900       -1.35700
N          0.08300       -1.04700        1.16700
H          0.10800        2.11000        2.31000
H          1.01400        0.75500        3.00200
H         -0.76800        0.75000        3.03000
H          0.09600        2.09100       -0.07800
H          0.06300        2.03200       -2.46600
H         -0.85500        0.66000       -3.10900
H          0.92800        0.64200       -3.14300
H          3.60400       -5.67200        2.07300
H          4.16900       -4.18900        1.32700
H          5.13500       -5.65500        1.17200
H          2.80700       -7.62800        0.70100
H          4.32400       -7.61700       -0.22100
H          2.75900       -7.53300       -1.05400
H          4.13200       -4.05900       -1.38500
H          3.49900       -5.44800       -2.25100
H          5.07300       -5.54900       -1.43200
