14
4187-86-4.pdb
C          1.04500        0.03300        0.05100
C          2.56800        0.05300        0.06300
C          3.13100        1.46800        0.22900
O          2.66600        2.03400        1.44900
C          4.60300        1.45700        0.23800
C          5.80500        1.46000        0.24400
H          0.68300       -0.99200       -0.08200
H          0.65100        0.64100       -0.76900
H          0.63300        0.41200        0.99100
H          2.94100       -0.39300       -0.86700
H          2.91000       -0.58600        0.88700
H          2.77600        2.10700       -0.58600
H          3.02300        1.48500        2.16800
H          6.87000        1.47400        0.24700
