16
4208-64-4.pdb
C          0.98200       -0.09300       -0.01000
C          2.50100       -0.10900        0.07000
O          2.97100        1.21200        0.32100
C          3.00200       -0.97800        1.16900
O          2.64300       -0.62800        2.44100
C          3.19800       -1.54500        3.27500
C          3.91800       -2.47300        2.56200
C          3.79600       -2.10600        1.20000
H          0.65000        0.59200       -0.79700
H          0.53600        0.26600        0.92500
H          0.58200       -1.09000       -0.22000
H          2.91700       -0.43300       -0.89100
H          2.76200        1.39700        1.25600
H          2.99400       -1.40200        4.32800
H          4.46600       -3.30900        2.97400
H          4.23400       -2.59900        0.34300
