20
4208-57-5.pdb
C          1.04100       -0.13400        0.05700
C          2.55800       -0.10800       -0.04600
C          3.10900        1.25900        0.34900
C          4.63000        1.31100        0.29700
O          5.26600        0.59700       -0.48000
C          5.27300        2.27600        1.16700
O          4.51600        3.01200        2.03900
C          5.36200        3.80800        2.74000
C          6.65800        3.61200        2.32700
C          6.60300        2.62600        1.31300
H          0.65700       -1.12300       -0.20900
H          0.59100        0.60000       -0.61800
H          0.71400        0.09400        1.07700
H          2.85700       -0.35900       -1.07000
H          2.98100       -0.88100        0.60700
H          2.76700        1.48700        1.36400
H          2.72600        2.03600       -0.32300
H          4.89800        4.44300        3.48200
H          7.53300        4.11600        2.71300
H          7.42600        2.21000        0.74800
