15
4214-76-0.pdb
N          2.27600       -0.14300        0.21900
C          0.89400       -0.09500        0.08200
C          0.14600       -1.26700        0.07900
C         -1.24400       -1.18700        0.00500
C         -1.83600        0.07400       -0.04800
C         -1.02200        1.19400       -0.03700
N          0.33400        1.12600        0.02600
N         -3.28200        0.22400       -0.10300
O         -3.96800       -0.80900       -0.10300
O         -3.74200        1.37300       -0.14700
H          2.71600       -0.77600       -0.43800
H          2.62900        0.80800        0.13400
H          0.63700       -2.23200        0.14900
H         -1.83700       -2.09800        0.00400
H         -1.41900        2.20600       -0.07100
