15
4214-75-9.pdb
N          2.31200       -0.10800       -0.25300
C          0.93700       -0.14800       -0.07000
N          0.36000        1.07500       -0.05900
C         -0.98800        1.15100       -0.00400
C         -1.82100        0.04800        0.03900
C         -1.23000       -1.21000        0.03900
C          0.16900       -1.31100       -0.01600
N          0.78400       -2.63500        0.03400
O          1.98900       -2.71900        0.31100
O          0.04400       -3.61300       -0.15000
H          2.63200        0.85100       -0.15500
H          2.82200       -0.77300        0.32600
H         -1.39500        2.16100       -0.00200
H         -2.89800        0.16400        0.07300
H         -1.86200       -2.09500        0.08000
