24
4228-10-8.pdb
C          1.26400        0.83300        0.25700
C          2.47300        0.01200       -0.10400
O          2.84100       -0.92100        0.60600
C          3.22400        0.34400       -1.35200
C          4.35200       -0.43800       -1.67800
C          5.09400       -0.18500       -2.83500
C          4.70600        0.87000       -3.64100
C          5.32300        1.32100       -4.92800
C          4.74600        2.73900       -5.04600
C          3.37000        2.70800       -4.36300
C          3.59300        1.65400       -3.32300
C          2.83400        1.39800       -2.19100
H          0.86800        0.48800        1.21600
H          0.48500        0.70600       -0.50000
H          1.53600        1.88600        0.36500
H          4.65300       -1.25700       -1.02500
H          5.95400       -0.79800       -3.08400
H          4.98500        0.68500       -5.75300
H          6.41600        1.33500       -4.88700
H          4.69300        3.08600       -6.08200
H          5.39900        3.43700       -4.50300
H          2.58700        2.39500       -5.06000
H          3.12000        3.67900       -3.92700
H          1.96900        2.01700       -1.98100
