23
42288-46-0.pdb
C          2.46500        1.13800        0.01600
C          1.21600        0.31000       -0.00500
C          1.27500       -1.08700       -0.01900
C          0.10000       -1.84800       -0.03300
C          0.14800       -3.34600       -0.03300
C         -1.14400       -1.19600       -0.03400
C         -1.23000        0.20100       -0.01800
C         -2.53900        0.95900        0.01100
C         -3.84500        0.17000       -0.06300
O         -4.10500       -0.57300        0.92800
O         -4.55200        0.39300       -1.08900
C         -0.03600        0.94000       -0.00400
H          3.36300        0.51200        0.01200
H          2.49200        1.75800        0.91800
H          2.50300        1.78500       -0.86700
H          2.23900       -1.58700       -0.01300
H          1.17900       -3.71500       -0.03600
H         -0.35300       -3.74100       -0.92400
H         -0.34500       -3.73900        0.86100
H         -2.05600       -1.79400       -0.03200
H         -2.52800        1.67600       -0.82300
H         -2.57500        1.54800        0.93600
H         -0.09200        2.02700        0.01200
