18
4229-91-8.pdb
C          0.98900        0.06800        0.07800
C          2.50200        0.05400       -0.06600
C          3.05400        1.45300       -0.33700
C          4.53300        1.44100       -0.47300
O          5.04600        0.68200       -1.48300
C          6.39600        0.81000       -1.42900
C          6.75800        1.65300       -0.40400
C          5.55300        2.06100        0.21700
H          0.61800       -0.94400        0.26800
H          0.51200        0.43900       -0.83600
H          0.67900        0.70700        0.91200
H          2.77400       -0.62500       -0.88400
H          2.94900       -0.35700        0.84800
H          2.76800        2.12700        0.47900
H          2.61500        1.86000       -1.25500
H          6.94800        0.25500       -2.17300
H          7.76600        1.93800       -0.14000
H          5.44000        2.72800        1.06100
