16
42373-30-8.pdb
N         -2.41900        0.09500        0.17200
C         -1.04000       -0.00000       -0.01800
C         -0.28500        1.18000        0.01300
C          1.10700        1.13500       -0.01100
N          1.73400       -0.05000       -0.03200
C          1.06100       -1.21100       -0.02200
C         -0.33600       -1.20900        0.00300
C         -0.99700       -2.52200        0.03700
O         -0.31000       -3.53800        0.01100
H         -2.85700        0.97200       -0.10700
H         -3.01000       -0.69100       -0.08400
H         -0.78000        2.14900        0.06700
H          1.73100        2.02300        0.00200
H          2.75600       -0.07500       -0.03900
H          1.66000       -2.11700       -0.01900
H         -2.09500       -2.56800        0.07300
