22
4238-71-5.pdb
C          0.95800        0.02900        0.01600
N          0.37300        1.35800        0.01500
C         -0.11300        2.03400        1.10100
C         -0.67300        3.17900        0.58500
N         -0.53900        3.21400       -0.77900
C          0.09600        2.10800       -1.09300
C          2.46200        0.07000        0.09400
C          3.11400        0.04200        1.33600
C          4.50800        0.06500        1.40600
C          5.26500        0.12300        0.23800
C          4.63000        0.16100       -1.00100
C          3.23600        0.13600       -1.07400
H          0.62800       -0.48500       -0.89500
H          0.53700       -0.52500        0.86300
H         -0.03100        1.65900        2.11200
H         -1.17100        3.97600        1.12100
H          0.36700        1.80200       -2.09500
H          2.54100       -0.00100        2.26000
H          5.00500        0.03900        2.37300
H          6.35000        0.14200        0.29400
H          5.22100        0.21000       -1.91200
H          2.76100        0.16600       -2.05200
