16
4241-27-4.pdb
C          3.47100       -0.00400       -0.06200
C          1.98700       -0.19900       -0.01500
C          1.39200       -1.40000        0.03800
C         -0.05200       -1.49700        0.05000
C         -0.82900       -0.40000        0.02300
C         -2.24500       -0.48500        0.00800
N         -3.39800       -0.61800       -0.01100
C         -0.17100        0.93800       -0.00500
O         -0.80400        1.98800       -0.00700
N          1.20700        0.93500       -0.03400
H          4.00900       -0.95700       -0.01900
H          3.80500        0.60900        0.78100
H          3.75800        0.50000       -0.99200
H          1.96500       -2.32200        0.05800
H         -0.48400       -2.49500        0.06800
H          1.64000        1.85100       -0.06300
