17
42454-06-8.pdb
O          2.20200        0.05700        0.01700
C          0.84100        0.02000        0.01200
C          0.15000       -1.18000        0.00600
C         -1.24500       -1.15800       -0.00600
C         -1.95600        0.06600       -0.01200
C         -1.24800        1.28300        0.00100
C         -1.82900        2.65200        0.00400
O         -1.10900        3.64700        0.02100
C          0.16100        1.23400        0.01200
N         -3.42400       -0.03200       -0.03600
O         -3.92100       -1.16800       -0.06900
O         -4.09500        1.00300       -0.02300
H          2.55400       -0.84800       -0.00700
H          0.67100       -2.13300        0.01100
H         -1.76800       -2.11500       -0.01200
H         -2.91400        2.79500       -0.00700
H          0.74700        2.15300        0.02000
