23
4249-10-9.pdb
C         -2.56000       -1.16600       -0.03200
C         -1.17600       -0.62700        0.02100
C         -0.74800        0.65100        0.02200
C         -1.56200        1.90000       -0.00500
C          0.71200        0.66400        0.02300
C          1.16500       -0.60300        0.02200
C          2.56600       -1.09400       -0.03000
C          0.00600       -1.56100        0.05800
C          1.54000        1.90300       -0.00500
H         -3.31500       -0.37800       -0.09200
H         -2.77300       -1.76600        0.85800
H         -2.68200       -1.80200       -0.91600
H         -2.63600        1.69800       -0.00200
H         -1.34200        2.48300       -0.90400
H         -1.34600        2.51600        0.87400
H          3.28700       -0.27200       -0.08000
H          2.71500       -1.71700       -0.91700
H          2.79800       -1.69000        0.85700
H          0.01300       -2.15000        0.98100
H          0.01500       -2.22600       -0.81100
H          0.93800        2.81500       -0.00400
H          2.16400        1.92600       -0.90400
H          2.19200        1.94400        0.87400
