23
4250-81-1.pdb
C          0.96900        0.39500       -0.51800
C          2.37000        0.06000       -0.04200
C          2.97200        1.16900        0.82200
C          4.31200        0.76200        1.25900
C          5.37600        0.29900        1.56400
C          6.59500       -0.38200        1.86500
C          7.18700       -1.18700        0.88800
C          8.34900       -1.90200        1.18200
C          8.91700       -1.81200        2.45200
C          8.32700       -1.00700        3.42800
C          7.16500       -0.29100        3.13500
H          0.57600       -0.42500       -1.12700
H          0.96900        1.30300       -1.12900
H          0.29300        0.54500        0.32900
H          3.01200       -0.12400       -0.91300
H          2.33900       -0.87800        0.52700
H          2.33700        1.35300        1.69600
H          3.02500        2.10500        0.25400
H          6.74100       -1.26900       -0.09900
H          8.80200       -2.53400        0.42300
H          9.81900       -2.37400        2.68300
H          8.76800       -0.94400        4.41900
H          6.70300        0.32500        3.90300
