13
4254-15-3.pdb
C          0.91200       -0.08900       -0.04700
C          2.43100       -0.07700       -0.01500
O          2.90300        0.82700       -1.01600
C          2.96100        0.31900        1.37000
O          4.38700        0.33700        1.39600
H          0.55400       -0.36000       -1.04600
H          0.50700        0.90300        0.17400
H          0.50600       -0.80400        0.67400
H          2.81600       -1.06500       -0.28600
H          2.84900        1.73000       -0.65600
H          2.61400       -0.38200        2.13600
H          2.62600        1.32400        1.64300
H          4.70400       -0.42300        0.87900
