13
4254-14-2.pdb
C          0.92800       -0.03900        0.05600
C          2.44900       -0.05900        0.08300
O          2.91200        1.20900        0.55100
C          2.97900       -1.19600        0.97000
O          4.40200       -1.21600        0.99700
H          0.56800        0.78500       -0.56900
H          0.52000        0.12600        1.05900
H          0.52500       -0.97800       -0.33700
H          2.83500       -0.17500       -0.93400
H          2.82800        1.22100        1.51700
H          2.63000       -2.17000        0.60700
H          2.64200       -1.07200        2.00400
H          4.72200       -1.05100        0.09300
