18
42588-57-8.pdb
C          1.03900        0.62000       -0.16300
C          2.55000        0.68200       -0.28900
O          2.91800       -0.11200       -1.41700
C          4.26000       -0.07100       -1.69400
C          4.72600       -0.20400       -2.94200
C          3.87900       -0.35200       -4.16500
C          6.19800       -0.20700       -3.13600
O          6.71900       -0.31000       -4.24000
H          0.69000        1.20400        0.69200
H          0.70700       -0.41800       -0.04500
H          0.56300        1.00200       -1.07200
H          3.01500        0.28400        0.62100
H          2.86700        1.72100       -0.43700
H          4.88600        0.03000       -0.81700
H          2.80800       -0.33000       -3.93400
H          4.08900       -1.30300       -4.66400
H          4.07800        0.46400       -4.86800
H          6.80600       -0.11500       -2.22100
