17
4265-16-1.pdb
O          2.45400        0.70900       -0.84300
C          2.24800       -0.15300        0.00800
C          3.07100       -0.38200        1.16300
O          2.72000       -1.38500        2.02300
C          3.64500       -1.39800        3.02300
C          3.66000       -2.27800        4.10200
C          4.69800       -2.11500        5.02600
C          5.66000       -1.11500        4.86300
C          5.62200       -0.24800        3.76200
C          4.59000       -0.40000        2.82000
C          4.22000        0.24100        1.61000
H          1.37500       -0.82100       -0.08300
H          2.90600       -3.04800        4.21500
H          4.75500       -2.77800        5.88700
H          6.45100       -1.00500        5.60200
H          6.37600        0.52400        3.64300
H          4.72100        1.06300        1.11600
