20
42712-64-1.pdb
N          0.94700        0.16000       -0.12300
C          2.30800        0.05700        0.02300
C          2.90900       -1.14700        0.02700
C          4.38500       -1.24000        0.09600
O          4.94000       -2.33300        0.19300
C          5.15100        0.01900       -0.00300
C          6.54000        0.00200       -0.15400
C          7.22900        1.20700       -0.28200
C          6.53500        2.41600       -0.21700
C          5.14600        2.42700       -0.05100
C          4.43600        1.22500        0.00800
N          3.03800        1.21500        0.14900
H          0.44300       -0.69500        0.09800
H          0.55900        0.96600        0.35600
H          2.37400       -2.08200       -0.05800
H          7.07600       -0.94300       -0.19200
H          8.30700        1.20300       -0.43000
H          7.07700        3.35600       -0.30000
H          4.62600        3.37900        0.01000
H          2.55500        2.05300       -0.15100
