29
42711-75-1.pdb
O          1.01700       -0.03000        0.09200
C          2.43900        0.00500        0.17800
C          2.94100       -1.24700        0.91800
C          4.47300       -1.21400        1.02900
C          4.89500        0.04500        1.80300
C          4.40800        1.30500        1.06700
C          2.87600        1.26400        0.95100
C          5.01400        1.33500       -0.34500
C          4.59000        0.08300       -1.14500
C          5.07700       -1.17100       -0.38600
C          3.04700        0.03900       -1.23400
C          5.09200        0.13400       -2.60800
O          5.18200        1.28800       -3.11700
O          5.34500       -0.98400       -3.13900
H          0.67200       -0.00700        0.99800
H          2.61400       -2.15300        0.39100
H          2.48700       -1.30600        1.91600
H          4.82600       -2.10700        1.55600
H          5.98600        0.07200        1.91100
H          4.47500        0.01900        2.81600
H          4.71400        2.19900        1.62200
H          2.50600        2.16400        0.44200
H          2.41700        1.27700        1.94700
H          6.10900        1.38600       -0.28100
H          4.69100        2.25400       -0.85100
H          6.17300       -1.17000       -0.32400
H          4.79800       -2.08700       -0.92200
H          2.71200       -0.83800       -1.80400
H          2.65800        0.90600       -1.78600
