26
42726-73-8.pdb
C          3.73500        2.16100       -2.06300
O          3.94900        1.17800       -1.04800
C          4.43200        1.68600        0.12400
O          4.69400        2.86500        0.31500
C          4.61000        0.57900        1.11200
C          4.94500        1.08800        2.47600
O          4.09500        1.34000        3.32000
O          6.29200        1.22300        2.62900
C          6.83000        1.78500        3.85700
C          6.50100        0.90100        5.06600
C          8.35700        1.79900        3.67500
C          6.35900        3.23100        4.04900
H          3.37200        1.65000       -2.95900
H          4.67200        2.67000       -2.30900
H          2.97500        2.88100       -1.74200
H          5.38800       -0.10900        0.77000
H          3.67300        0.01600        1.19500
H          6.84900       -0.12500        4.90000
H          5.42700        0.83700        5.25600
H          6.97300        1.28300        5.97800
H          8.74200        0.78700        3.50600
H          8.86200        2.21700        4.55300
H          8.64300        2.39100        2.79800
H          5.27700        3.30000        4.18400
H          6.60000        3.83400        3.16400
H          6.83200        3.69100        4.92100
