20
4276-09-9.pdb
C          0.90300        0.05400        0.03200
C          2.43400        0.06400        0.00700
C          2.95200       -1.29500       -0.47800
C          3.04900        1.23100       -0.80400
N          2.68400        1.24100       -2.23500
C          2.70700        2.61400       -0.21200
O          3.40700        3.62300       -0.94200
H          0.53700       -0.78200        0.63900
H          0.47900       -0.05600       -0.97000
H          0.50600        0.97100        0.47600
H          2.77300        0.17700        1.04600
H          2.61500       -1.52300       -1.49300
H          2.59700       -2.09800        0.17600
H          4.04700       -1.31900       -0.46600
H          4.14200        1.12900       -0.77600
H          1.67300        1.34100       -2.33200
H          2.91500        0.34000       -2.65400
H          3.00600        2.68100        0.83800
H          1.63700        2.83700       -0.28500
H          3.43100        3.28700       -1.86200
