36
42783-78-8.pdb
C          0.78300       -0.15100       -0.14100
C          2.28900       -0.05200       -0.01100
O          2.86600       -1.25000       -0.52200
C          4.29200       -1.20600       -0.61700
C          4.96200       -1.15800        0.78000
O          6.39300       -1.10900        0.75200
C          6.90200        0.09500        0.19300
C          8.40400        0.08900        0.25800
C          9.12600       -0.98000       -0.29300
C         10.52100       -0.96000       -0.30300
C         11.20300        0.12900        0.23400
C         10.49700        1.19200        0.79200
C          9.10100        1.17400        0.80500
O          4.77300       -2.38600       -1.27400
C          4.42200       -2.43300       -2.65200
C          4.98900       -3.71200       -3.24000
H          0.29800        0.71700        0.31400
H          0.41300       -1.06000        0.34600
H          0.49000       -0.20800       -1.19400
H          2.53900        0.06000        1.04700
H          2.65800        0.81800       -0.56500
H          4.58500       -0.33600       -1.21400
H          4.68500       -2.06200        1.33500
H          4.60200       -0.31100        1.37400
H          6.49100        0.95300        0.73800
H          6.61900        0.18200       -0.86200
H          8.59700       -1.83200       -0.71500
H         11.07000       -1.79100       -0.73500
H         12.29000        0.14700        0.22100
H         11.03100        2.03800        1.21600
H          8.56400        2.01300        1.23900
H          4.84400       -1.56800       -3.17400
H          3.33200       -2.42700       -2.76500
H          6.07700       -3.73800       -3.12800
H          4.74100       -3.79700       -4.30200
H          4.59400       -4.58700       -2.71400
