26
4287-20-1.pdb
N          0.88100       -1.21700        1.97900
C          2.37000       -1.31600        2.06500
C          2.94800       -0.05200        1.42100
O          2.34200        1.06400        2.10000
C          4.47800       -0.02200        1.46900
O          4.90100       -0.10100        2.83000
C          6.25600       -0.09000        3.03800
C          7.23600       -0.05500        2.04300
C          8.59000       -0.05100        2.38900
C          8.97200       -0.08100        3.72800
C          8.00000       -0.11400        4.72500
C          6.64600       -0.11900        4.38000
H          0.40300       -1.90700        2.56900
H          0.53500       -1.30200        1.01700
H          0.62000       -0.27100        2.30800
H          2.67300       -2.23600        1.56000
H          2.59300       -1.37000        3.13400
H          2.62900        0.01200        0.37500
H          3.05700        1.64900        2.42300
H          4.82800        0.92000        1.03100
H          4.86400       -0.87700        0.90100
H          6.99500       -0.02800        0.98600
H          9.35100       -0.02400        1.61200
H         10.02700       -0.07600        3.99400
H          8.29800       -0.13300        5.77100
H          5.89900       -0.14100        5.16900
