26
42882-31-5.pdb
C          0.97000        0.21700       -0.01400
C          2.49500        0.07600        0.11000
N          2.89600        0.78800        1.33100
C          3.04400       -1.35600        0.10300
C          2.16400       -2.45500        0.03900
C          2.63300       -3.76600        0.03800
C          3.99700       -4.01400        0.10900
C          4.91500       -2.96000        0.16400
C          6.28900       -3.24500        0.23700
C          7.23400       -2.22400        0.28300
C          6.81400       -0.90300        0.24700
C          5.44900       -0.60600        0.17600
C          4.45600       -1.61400        0.14500
H          0.67400        1.27200       -0.03300
H          0.44800       -0.25300        0.82900
H          0.60300       -0.23600       -0.94100
H          2.93000        0.59200       -0.75500
H          2.55100        0.27500        2.14100
H          2.45800        1.70600        1.35600
H          1.08800       -2.31700       -0.01400
H          1.93300       -4.59500       -0.01500
H          4.34100       -5.04700        0.11800
H          6.63600       -4.27600        0.26300
H          8.29200       -2.46000        0.34800
H          7.54100       -0.09600        0.28100
H          5.17100        0.44600        0.15700
