15
42885-14-3.pdb
C          0.94700        0.00800        0.07300
C          2.44200        0.04900        0.07300
C          3.20800       -1.11100        0.07300
N          4.56100       -1.12100        0.07500
C          5.18300        0.08300        0.07700
C          4.51400        1.29700        0.07500
C          3.11900        1.27300        0.07400
C          5.23300        2.53100        0.07300
N          5.80600        3.54000        0.07000
H          0.56900       -1.02000        0.07100
H          0.55800        0.51100       -0.81900
H          0.55800        0.50900        0.96500
H          2.74800       -2.09700        0.07000
H          6.27000        0.03100        0.08000
H          2.55500        2.20500        0.07400
