33
4292-92-6.pdb
C          0.86400        0.29300       -0.26800
C          2.38200        0.29900       -0.23300
C          2.92200        1.33800        0.75100
C          4.45100        1.31400        0.77000
C          5.02900        2.33700        1.75200
C          6.57100        2.34100        1.78700
C          7.14700        0.97900        2.21100
C          8.66700        1.00800        2.35000
C          9.12100        2.10800        3.29900
C          8.58700        3.46700        2.86100
C          7.06600        3.45600        2.72600
H          0.50600       -0.45400       -0.98400
H          0.47400        1.27000       -0.57200
H          0.45000        0.04700        0.71500
H          2.76500        0.50700       -1.23900
H          2.73800       -0.69900        0.04800
H          2.53800        1.12800        1.75600
H          2.56900        2.33700        0.47000
H          4.83700        1.51600       -0.23600
H          4.77100        0.30300        1.04400
H          4.63800        2.13500        2.75900
H          4.67400        3.33700        1.47200
H          6.93600        2.56500        0.77500
H          6.89200        0.20900        1.47500
H          6.70100        0.66900        3.16500
H          9.11900        1.16500        1.36300
H          9.02000        0.03700        2.71200
H         10.21600        2.13400        3.33700
H          8.76900        1.88500        4.31400
H          9.03700        3.74500        1.90000
H          8.88700        4.23100        3.58700
H          6.73200        4.43100        2.35400
H          6.62000        3.32700        3.72100
