33
42924-53-8.pdb
C          1.14500       -0.27000        0.47200
O          2.48900       -0.06800        0.05100
C          3.12500        1.01800        0.58700
C          2.81700        1.61500        1.80700
C          3.56100        2.71100        2.25900
C          4.62500        3.22500        1.50000
C          5.38500        4.32600        1.93800
C          6.44600        4.84000        1.17100
C          7.25700        5.99600        1.71800
C          7.85800        6.92600        0.66200
C          8.61300        8.08700        1.27700
C          9.27100        9.04900        0.32200
O          8.70700        8.25000        2.49400
C          6.75500        4.21000       -0.03900
C          6.00800        3.11700       -0.48800
C          4.94200        2.61400        0.26900
C          4.19100        1.51100       -0.16800
H          0.73500       -1.10100       -0.11000
H          0.53400        0.61700        0.26800
H          1.09200       -0.55100        1.52800
H          2.02000        1.24200        2.44000
H          3.30700        3.15700        3.21800
H          5.15000        4.78700        2.89600
H          8.05600        5.58300        2.34700
H          6.61600        6.59600        2.37900
H          7.06500        7.33600        0.02500
H          8.57100        6.38400        0.03100
H          9.06900        8.76100       -0.71300
H         10.35200        9.03500        0.48400
H          8.87400       10.05300        0.49000
H          7.58400        4.54400       -0.65500
H          6.27100        2.65600       -1.43700
H          4.43100        1.02600       -1.11200
