21
4294-95-5.pdb
C          1.22800        0.26300        0.33100
O          2.59000        0.09400       -0.04700
C          3.09500        1.04600       -0.89100
C          2.63900        2.35800       -0.98200
C          3.23200        3.24700       -1.88300
C          4.30200        2.82800       -2.69200
C          4.89300        3.75700       -3.69500
O          4.89100        5.05700       -3.32900
O          5.34900        3.37700       -4.76300
C          4.75200        1.49200       -2.63000
N          5.90600        1.05200       -3.31100
C          4.16900        0.63400       -1.68600
H          0.91500       -0.63800        0.86800
H          0.58200        0.37100       -0.54800
H          1.10900        1.11100        1.01300
H          1.83000        2.72200       -0.35600
H          2.83200        4.25300       -1.95500
H          4.69400        5.22000       -2.38900
H          6.08400        1.60000       -4.16100
H          5.91400        0.05600       -3.50600
H          4.54000       -0.38400       -1.57700
