30
42998-51-6.pdb
C          2.41200       -4.78100       -2.58200
C          2.46800       -4.02600       -1.26600
O          3.12100       -2.77400       -1.51700
C          4.48400       -2.81000       -1.43500
O          5.13200       -3.69100       -0.89200
C          5.04600       -1.65900       -2.20000
C          6.53500       -1.65600       -2.20900
O          7.21300       -0.99100       -1.43500
O          7.02300       -2.45300       -3.19700
C          8.45200       -2.50400       -3.31800
C          8.93200       -3.93000       -3.22200
C          9.69400       -4.50400       -4.25100
C         10.19200       -5.80200       -4.12500
C          9.93700       -6.54000       -2.97000
C          9.18000       -5.98200       -1.94200
C          8.67900       -4.68500       -2.06700
H          1.93300       -5.75500       -2.46400
H          3.41900       -4.92700       -2.99000
H          1.85800       -4.19900       -3.32700
H          2.97400       -4.60800       -0.48800
H          1.45500       -3.81200       -0.91000
H          4.70000       -0.71700       -1.76200
H          4.68400       -1.70400       -3.23500
H          8.97900       -1.90600       -2.56500
H          8.70400       -2.08200       -4.29800
H          9.91400       -3.94000       -5.15400
H         10.78600       -6.23600       -4.92500
H         10.33200       -7.54700       -2.86900
H          8.98300       -6.55300       -1.03800
H          8.09600       -4.26100       -1.25000
