24
43038-45-5.pdb
N          1.24500        0.20200        0.48600
N          2.64400        0.06600        0.35800
C          3.23500       -1.19000        0.52200
O          2.59500       -2.19500        0.81300
C          4.72300       -1.21300        0.36600
C          5.43900       -0.14700        0.94200
C          6.82700       -0.11300        0.88400
C          7.51500       -1.15400        0.26800
C          6.83200       -2.23800       -0.30000
C          7.56600       -3.28000       -0.89300
C          6.92600       -4.37300       -1.46900
C          5.54000       -4.43300       -1.46900
C          4.79300       -3.40700       -0.88100
C          5.41300       -2.29000       -0.27000
H          1.04600        0.95400        1.14900
H          0.90400       -0.65700        0.94400
H          3.17500        0.83100       -0.05200
H          4.92400        0.65200        1.46900
H          7.37300        0.71200        1.33200
H          8.60300       -1.11600        0.24700
H          8.65400       -3.24800       -0.90700
H          7.51000       -5.17400       -1.91700
H          5.03200       -5.28200       -1.92000
H          3.70900       -3.49600       -0.90300
