23
4312-99-6.pdb
C          1.01700        0.07600       -0.03300
C          2.53500        0.07200       -0.05800
C          3.07300       -0.26800       -1.44900
C          4.60000       -0.26800       -1.45000
C          5.17700       -0.60200       -2.82600
C          6.69500       -0.59300       -2.79600
O          7.34000       -0.34400       -1.78200
C          7.38300       -0.90700       -4.08100
C          8.72200       -0.92100       -4.14100
H          0.65600        0.32100        0.97100
H          0.61800       -0.90600       -0.30800
H          0.61600        0.81800       -0.73000
H          2.90600       -0.65700        0.67300
H          2.90400        1.05600        0.25300
H          2.70300        0.46300       -2.17700
H          2.70300       -1.25300       -1.75800
H          4.96600       -0.99500       -0.71400
H          4.96600        0.71500       -1.13000
H          4.83900        0.13600       -3.56200
H          4.84200       -1.59700       -3.14000
H          6.77100       -1.11900       -4.94900
H          9.33000       -0.70700       -3.26500
H          9.24100       -1.14700       -5.06600
