35
4314-68-5.pdb
C          0.93400       -0.17800        0.04500
O          2.32500       -0.01800       -0.20800
C          2.94000        1.02700        0.42500
C          2.30800        1.99200        1.20700
C          3.05400        2.99900        1.82800
C          4.44700        3.04600        1.70400
C          5.30000        4.08600        2.40000
C          4.79900        4.62700        3.75700
C          4.64400        3.49200        4.77200
O          5.76400        3.15600        5.45300
O          3.58900        2.90000        4.96000
C          5.62400        5.78200        4.32300
C          4.99000        6.70000        5.17800
C          5.71500        7.71600        5.80000
C          7.08500        7.82600        5.58400
C          7.72600        6.93400        4.72800
C          7.00200        5.92400        4.09300
C          5.06800        2.10100        0.87400
C          4.32000        1.10100        0.24600
H          0.60400       -1.09100       -0.46200
H          0.36500        0.66000       -0.37100
H          0.73300       -0.30100        1.11400
H          1.23600        1.98600        1.37000
H          2.51200        3.72200        2.43400
H          5.42300        4.92300        1.70000
H          6.29500        3.64500        2.54600
H          3.79200        5.04000        3.60400
H          6.52400        3.74500        5.30200
H          3.92100        6.62500        5.37600
H          5.21000        8.41500        6.46300
H          7.65300        8.60600        6.08300
H          8.79700        7.02300        4.55900
H          7.54400        5.24900        3.43600
H          6.14400        2.12200        0.72000
H          4.82200        0.36400       -0.37600
