30
43182-10-1.pdb
N          1.15800       -0.10200        0.26500
C          2.49700       -0.01400        0.19700
N          3.19200        1.09500        0.23100
C          4.50500        0.71200        0.12600
C          5.66700        1.50000        0.13100
C          6.91100        0.86800        0.01200
C          6.99700       -0.51800       -0.12600
C          5.85000       -1.32000       -0.13800
C          4.61700       -0.67000        0.00400
N          3.31400       -1.11500        0.07500
C          2.89500       -2.50600        0.14000
C          2.41200       -3.08900       -1.17100
C          2.56400       -2.45400       -2.41200
C          2.06200       -3.03700       -3.57800
C          1.41700       -4.27100       -3.52400
C          1.29000       -4.93100       -2.30600
C          1.78700       -4.34800       -1.13900
H          0.67900        0.78900        0.15500
H          0.67800       -0.85400       -0.21700
H          5.59100        2.57600        0.23400
H          7.81800        1.46700        0.02900
H          7.97500       -0.98600       -0.22200
H          5.92500       -2.39600       -0.25000
H          2.09100       -2.56000        0.88400
H          3.73400       -3.09700        0.52400
H          3.06500       -1.49100       -2.49900
H          2.17400       -2.52500       -4.53000
H          1.02200       -4.71700       -4.43200
H          0.79900       -5.90200       -2.26400
H          1.67700       -4.88500       -0.19900
