17
4319-49-7.pdb
N          1.07600        0.07500        0.11300
N          2.52000        0.03600       -0.03700
C          2.94700        1.01500       -1.06600
C          2.59100        0.61100       -2.50500
O          3.11300       -0.68500       -2.82800
C          2.58500       -1.65900       -1.91800
C          2.94800       -1.31800       -0.46500
H          0.78500        0.99000        0.46900
H          0.78000       -0.57900        0.84400
H          4.03900        1.10400       -0.99100
H          2.54300        2.01000       -0.84000
H          3.03500        1.32600       -3.20600
H          1.50700        0.61800       -2.67100
H          3.02000       -2.62700       -2.18700
H          1.50000       -1.73700       -2.05800
H          4.04000       -1.35900       -0.36200
H          2.54700       -2.08000        0.21500
