27
432-25-7.pdb
C          2.77600       -1.10100        0.01500
C          1.40800       -0.45700        0.00300
C          0.20500       -1.07500        0.13100
C          0.14300       -2.54600        0.43800
O         -0.89700       -3.16600        0.63200
C         -1.14100       -0.33100        0.00500
C         -2.09900       -1.01300       -0.99900
C         -1.82600       -0.25600        1.38600
C         -0.94100        1.11500       -0.53300
C          0.24100        1.81600        0.11300
C          1.52000        1.04600       -0.18000
H          2.77700       -2.18900        0.06500
H          3.35700       -0.73100        0.86500
H          3.31100       -0.83600       -0.90400
H          1.09800       -3.07400        0.51900
H         -2.44200       -1.99600       -0.66800
H         -1.62200       -1.13900       -1.97800
H         -3.00300       -0.40900       -1.14600
H         -2.07000       -1.24800        1.78000
H         -2.76700        0.30400        1.32800
H         -1.19100        0.23900        2.12900
H         -1.84800        1.71100       -0.37800
H         -0.77300        1.09200       -1.62000
H          0.09100        1.90500        1.19500
H          0.33000        2.83700       -0.27500
H          2.30600        1.44100        0.47600
H          1.83600        1.24500       -1.21100
