42
4326-36-7.pdb
C          6.43700       -2.98000        1.68200
O          5.92300       -2.58900        0.40900
C          5.15000       -1.46700        0.43700
O          4.79100       -0.89800        1.46300
C          4.80000       -0.96200       -0.97200
C          3.28300       -0.77200       -1.10800
C          2.81100       -0.14300       -2.40700
C          1.51200       -0.41500       -2.86900
C          1.04500        0.14400       -4.06300
C          1.87100        0.98900       -4.79500
O          1.46700        1.54400       -5.97200
C          3.14400        1.29800       -4.34100
C          3.60700        0.74600       -3.14700
N          5.36700       -1.78700       -2.04300
C          6.67100       -1.60900       -2.38600
O          7.36400       -0.74300       -1.87500
O          7.06000       -2.48200       -3.34500
C          8.40100       -2.33100       -3.89200
C          9.47600       -2.58200       -2.82500
C          8.55800       -3.40700       -4.97800
C          8.55600       -0.96100       -4.56700
H          6.93500       -3.94700        1.56400
H          5.63300       -3.09200        2.41600
H          7.17700       -2.25000        2.02500
H          5.29000        0.01800       -1.02800
H          2.79400       -1.74700       -0.98500
H          2.92100       -0.13500       -0.28900
H          0.85300       -1.06800       -2.30100
H          0.04100       -0.09000       -4.40100
H          0.56700        1.23400       -6.16600
H          3.78000        1.96800       -4.91300
H          4.60600        1.02300       -2.82000
H          4.88000       -2.59300       -2.42200
H          9.36700       -3.58500       -2.39500
H          9.41400       -1.88300       -1.98500
H         10.48300       -2.49300       -3.24600
H          8.44500       -4.41300       -4.56000
H          9.54200       -3.34600       -5.45900
H          7.79100       -3.30200       -5.75500
H          8.46900       -0.12900       -3.86000
H          7.76600       -0.80900       -5.31400
H          9.52800       -0.86200       -5.06200
