16
4341-76-8.pdb
C          2.51000       -0.78200        2.15600
C          2.33000        0.68800        1.82200
O          3.05000        0.96200        0.61200
C          4.34800        1.32300        0.78000
O          4.89400        1.61700        1.83100
C          5.09400        1.23500       -0.44800
C          5.74600        1.12000       -1.45500
C          6.56300        0.97400       -2.65800
H          1.91500       -1.06800        3.02700
H          3.56300       -1.00600        2.36100
H          2.21800       -1.40400        1.30400
H          2.65000        1.33000        2.65000
H          1.27300        0.90100        1.63300
H          5.98000        1.20000       -3.55500
H          6.95200       -0.04400       -2.75200
H          7.41600        1.66000       -2.62500
