17
4360-47-8.pdb
N          0.93900        0.10600       -0.23800
C          2.20000        0.10000       -0.24800
C          3.72000        0.09300       -0.25900
C          4.44100        0.97000        0.45200
C          5.91100        1.02300        0.41700
C          6.64400        0.68700       -0.73200
C          8.03800        0.78500       -0.74400
C          8.71300        1.23200        0.38700
C          7.99900        1.58400        1.52900
C          6.60400        1.48400        1.54300
H          4.16100       -0.66200       -0.89900
H          3.94700        1.69300        1.09700
H          6.14600        0.36000       -1.64100
H          8.59100        0.51900       -1.64000
H          9.79800        1.31300        0.37700
H          8.52500        1.94100        2.41100
H          6.06700        1.76700        2.44600
