19
4363-93-3.pdb
O          2.68900       -1.01300        0.79000
C          2.33500       -0.13300        0.01200
C          3.05800        0.12800       -1.25400
C          4.16800       -0.67200       -1.52400
C          4.85400       -0.44500       -2.69400
N          4.50900        0.50700       -3.58400
C          3.44200        1.28000       -3.32300
C          3.11100        2.26000       -4.25000
C          2.02400        3.11600       -4.06700
C          1.24100        2.99400       -2.93100
C          1.54900        2.01800       -1.98500
C          2.65600        1.14300       -2.15800
H          1.45800        0.48600        0.24700
H          4.49200       -1.45100       -0.84100
H          5.72700       -1.03500       -2.95900
H          3.72100        2.36100       -5.14500
H          1.79700        3.87400       -4.81300
H          0.39200        3.65700       -2.77700
H          0.90700        1.95900       -1.11100
