23
4368-83-6.pdb
C          1.00900       -0.05100       -0.12200
C          2.47100        0.06400        0.22700
O          2.84800        0.88500        1.05500
N          3.25000       -0.84300       -0.47100
C          4.64300       -1.02400       -0.35100
C          5.40900       -0.47000        0.67600
C          6.79400       -0.64800        0.69600
C          7.41500       -1.39600       -0.31300
C          6.67100       -2.01300       -1.32300
C          5.27500       -1.81000       -1.32400
C          7.29300       -2.90200       -2.35500
O          8.32900       -3.53500       -2.00400
O          6.68400       -2.99200       -3.46400
N          8.87400       -1.41100       -0.31600
O          9.43100       -1.82600        0.71500
O          9.44100       -0.80400       -1.23900
H          0.48100        0.83900        0.23300
H          0.58800       -0.93400        0.36600
H          0.87100       -0.12000       -1.20500
H          2.80700       -1.36300       -1.21700
H          4.95600        0.10800        1.47600
H          7.38200       -0.18600        1.48600
H          4.69900       -2.27700       -2.12400
