20
4369-55-5.pdb
N          0.99300       -1.76000        0.89100
C          0.19100       -0.75400        0.51900
O          0.74700        0.28700       -0.15000
N         -0.22700        1.22300       -0.44500
C         -1.37100        0.74600        0.07400
C         -1.14600       -0.52400        0.67500
C         -2.62700        1.49000       -0.00600
C         -2.86100        2.38900       -1.05700
C         -4.06400        3.09600       -1.13400
C         -5.04200        2.91700       -0.15800
C         -4.82000        2.03500        0.89600
C         -3.61900        1.32300        0.97200
H          1.94000       -1.79800        0.52400
H          0.61400       -2.65300        1.18500
H         -1.86100       -1.16900        1.15900
H         -2.10700        2.54200       -1.82700
H         -4.23300        3.78800       -1.95500
H         -5.97500        3.47200       -0.21600
H         -5.57800        1.90400        1.66400
H         -3.46500        0.65400        1.81500
