23
4383-08-8.pdb
C          2.70900       -0.14800        1.69600
C          2.43000        0.00800        0.22400
C          1.48900        0.87400       -0.19900
C          3.23000       -0.89800       -0.70300
O          2.78800       -0.73000       -2.05200
C          4.73800       -0.70100       -0.68200
C          5.57400       -1.79400       -0.96800
C          6.96100       -1.64000       -1.01600
C          7.53200       -0.39200       -0.78100
C          6.71800        0.70400       -0.50400
C          5.33100        0.55400       -0.46600
H          2.03700        0.46400        2.30700
H          3.73200        0.15400        1.93700
H          2.57200       -1.19100        2.00200
H          0.92300        1.48800        0.49400
H          1.24300        0.97900       -1.25100
H          2.99800       -1.93200       -0.42400
H          3.40000       -0.10000       -2.46700
H          5.14400       -2.77300       -1.17100
H          7.59500       -2.49400       -1.24400
H          8.61200       -0.27100       -0.82100
H          7.16300        1.67900       -0.32300
H          4.71500        1.42800       -0.26200
