17
4394-85-8.pdb
O          1.08900        0.07600        0.58700
C          2.18500        0.08100        0.04400
N          3.04400        1.15100       -0.01400
C          2.72700        2.42700        0.61800
C          2.89200        3.57500       -0.38400
O          4.18900        3.54200       -1.00700
C          4.38900        2.30100       -1.70600
C          4.30700        1.11300       -0.74200
H          2.57900       -0.81300       -0.46600
H          3.43800        2.55100        1.44400
H          1.71500        2.42200        1.03500
H          2.79200        4.53700        0.12800
H          2.12500        3.52700       -1.16600
H          5.37700        2.33600       -2.17700
H          3.63800        2.21700       -2.50000
H          5.10400        1.18200        0.00800
H          4.41500        0.16600       -1.27900
