28
4397-53-9.pdb
O          1.68600        0.34300       -0.73700
C          1.77100       -0.21700        0.35000
C          2.71100        0.23300        1.39300
C          3.52800        1.34900        1.19000
C          4.37200        1.78500        2.21500
C          4.39100        1.11700        3.44200
O          5.18500        1.67100        4.41300
C          4.82500        1.30500        5.74900
C          5.34400        2.30700        6.74800
C          5.04000        3.66900        6.61100
C          5.41100        4.57800        7.60100
C          6.08800        4.13500        8.73600
C          6.40400        2.78500        8.87800
C          6.03200        1.87400        7.89000
C          3.61400       -0.03500        3.61200
C          2.76300       -0.46900        2.59700
H          1.13800       -1.08400        0.60000
H          3.49800        1.88900        0.24500
H          4.99600        2.66300        2.06500
H          5.23500        0.31100        5.96200
H          3.73400        1.28300        5.87500
H          4.49600        4.02000        5.73700
H          5.16000        5.63000        7.49300
H          6.36600        4.84200        9.51300
H          6.92900        2.44000        9.76500
H          6.26900        0.82100        8.02600
H          3.64400       -0.61000        4.53200
H          2.14300       -1.34500        2.76500
