19
4408-64-4.pdb
C          0.97200        0.09200        0.13600
N          2.45600        0.02900        0.05600
C          2.79400        0.29500       -1.39200
C          4.27500        0.10600       -1.69000
O          4.84700       -0.84100       -0.90300
O          4.88300        0.69500       -2.57000
C          3.03100        1.15400        0.88100
C          2.73700        0.99100        2.37300
O          2.60200       -0.30500        2.74800
O          2.67400        1.91900        3.16400
H          0.52600       -0.67600       -0.50600
H          0.58400        1.07000       -0.17100
H          0.61200       -0.11500        1.14900
H          2.49700        1.31000       -1.68600
H          2.26600       -0.42600       -2.02900
H          4.16900       -1.17900       -0.28200
H          2.64200        2.12300        0.55100
H          4.12300        1.15700        0.79400
H          2.63200       -0.87400        1.95100
