19
4414-88-4.pdb
N          5.94700       -1.44600       -0.69800
C          5.03600       -0.80200       -0.37700
C          3.87400       -0.03200        0.07700
C          4.26200        0.96300        1.11800
N          4.85000        0.60900        2.31100
C          4.99700        1.74000        3.07200
C          5.50100        1.95000        4.35700
C          5.47500        3.26600        4.83400
C          4.97800        4.31200        4.05100
C          4.48900        4.07300        2.76000
C          4.49700        2.76000        2.27200
N          4.05400        2.26500        1.06900
H          3.11800       -0.70700        0.49500
H          3.40900        0.48300       -0.77100
H          5.11600       -0.32500        2.59200
H          5.88500        1.13900        4.96600
H          5.84800        3.47700        5.83400
H          4.96700        5.32400        4.44900
H          4.10000        4.88000        2.15000
