28
442-51-3.pdb
C          1.14000        0.25700       -0.36800
O          2.50000        0.08800        0.02200
C          3.14000       -0.95600       -0.59400
C          4.15300       -1.56300        0.14700
C          4.88100       -2.64000       -0.37700
C          4.59100       -3.09900       -1.67800
C          3.59200       -2.45500       -2.40200
N          3.51900       -3.06900       -3.62700
C          4.42500       -4.09900       -3.72100
C          4.68700       -4.98300       -4.77000
C          3.97800       -4.98500       -6.08700
N          5.65900       -5.91700       -4.58000
C          6.33100       -5.95900       -3.40900
C          6.11200       -5.10800       -2.34000
C          5.11500       -4.13900       -2.50800
C          2.85200       -1.38400       -1.89400
H          0.69700        1.02000        0.27800
H          0.57800       -0.67400       -0.23100
H          1.05900        0.61600       -1.39900
H          4.37600       -1.20600        1.14900
H          5.66000       -3.11100        0.21400
H          2.88100       -2.79800       -4.36000
H          3.21600       -4.20000       -6.14000
H          3.48500       -5.94700       -6.24400
H          4.69500       -4.81600       -6.89600
H          7.08800       -6.73600       -3.34600
H          6.68400       -5.19200       -1.42400
H          2.09900       -0.90600       -2.50800
