18
4421-08-3.pdb
C          1.43200        0.57900       -0.54900
O          2.56500       -0.08200       -0.00000
C          3.18700       -1.01800       -0.78200
C          2.74800       -1.41800       -2.04800
C          3.45700       -2.38700       -2.77100
C          4.60900       -2.96400       -2.22900
C          5.05400       -2.57500       -0.96500
C          4.34300       -1.61000       -0.25100
O          4.77900       -1.22800        0.99000
C          2.99400       -2.78400       -4.06900
N          2.61300       -3.09900       -5.11800
H          1.07700        1.30800        0.18500
H          0.61700       -0.12800       -0.73700
H          1.69800        1.12600       -1.46000
H          1.85500       -0.99100       -2.49400
H          5.16500       -3.71600       -2.78600
H          5.95100       -3.03100       -0.55500
H          5.57900       -1.72600        1.21900
