23
4423-94-3.pdb
C          1.35500       -0.20900        0.95600
C          2.39900        0.09700       -0.11100
C          3.04900        1.49000       -0.03500
C          2.03800        2.63300       -0.17500
C          2.71400        4.00200       -0.07600
C          3.44000        4.14300        1.25700
C          4.49500        3.06100        1.42900
C          3.90800        1.68100        1.21600
O          4.23700        0.74500        1.94500
H          1.00900       -1.24300        0.84800
H          0.47900        0.43900        0.86400
H          1.76100       -0.10300        1.96600
H          1.92800       -0.02100       -1.09500
H          3.18400       -0.66800       -0.05200
H          3.75300        1.55500       -0.87800
H          1.27200        2.57100        0.60600
H          1.52200        2.55800       -1.14000
H          1.96200        4.79300       -0.17100
H          3.42300        4.13100       -0.90300
H          2.71100        4.07900        2.07400
H          3.91100        5.13000        1.32200
H          4.91800        3.11600        2.43800
H          5.31100        3.19600        0.71000
