44
4433-30-1.pdb
C          0.86400        0.01600       -0.02900
C          2.38300        0.01300       -0.03800
C          2.91900       -0.98300       -1.06100
C          4.44200       -0.99000       -1.07200
C          4.96600       -1.98800       -2.09700
C          6.48900       -1.99400       -2.11000
C          7.00800       -2.99100       -3.13600
C          8.53000       -3.00300       -3.15100
C          9.03400       -4.00400       -4.18000
C         10.55500       -4.02600       -4.21900
C         11.05900       -5.01500       -5.25200
O         10.29900       -5.70100       -5.93300
C         12.52900       -5.16600       -5.42200
C         13.44700       -4.39200       -4.70000
C         14.81400       -4.59600       -4.86900
C         15.27200       -5.57400       -5.75200
C         14.36400       -6.33900       -6.48200
C         12.99400       -6.13300       -6.32200
H          0.49100        0.73300        0.70600
H          0.47500       -0.97500        0.23000
H          0.46900        0.29300       -1.01100
H          2.75300       -0.24200        0.96100
H          2.74700        1.02000       -0.27400
H          2.54300       -0.72900       -2.05900
H          2.54800       -1.99000       -0.82300
H          4.82200       -1.24800       -0.07700
H          4.81500        0.01500       -1.31100
H          4.58800       -1.73100       -3.09400
H          4.59500       -2.99300       -1.86000
H          6.86800       -2.25500       -1.11500
H          6.86300       -0.99000       -2.34700
H          6.62900       -2.72900       -4.13200
H          6.63200       -3.99500       -2.90100
H          8.91200       -3.26600       -2.15700
H          8.90800       -2.00100       -3.39000
H          8.64200       -3.74400       -5.17200
H          8.65400       -5.00500       -3.94100
H         10.94000       -4.31500       -3.23400
H         10.92400       -3.02700       -4.47700
H         13.12500       -3.62400       -4.00200
H         15.52800       -3.99900       -4.30600
H         16.33800       -5.74300       -5.87200
H         14.71600       -7.10200       -7.17200
H         12.29000       -6.73500       -6.89300
