21
4442-53-9.pdb
O          1.33700        0.46500       -0.40600
C          2.45500        0.04700        0.22000
O          2.88800        0.61400        1.21200
C          3.12600       -1.15200       -0.36600
C          4.27500       -1.62000        0.29800
C          4.96600       -2.74100       -0.16600
C          4.52400       -3.40100       -1.30900
C          3.39900       -2.93600       -1.99000
O          3.05900       -3.62800       -3.12600
C          2.16800       -2.87300       -3.95200
C          1.04000       -2.30300       -3.11400
O          1.55000       -1.36900       -2.15200
C          2.68100       -1.82900       -1.51400
H          1.11000       -0.07600       -1.19100
H          4.63800       -1.10800        1.18900
H          5.84900       -3.09200        0.36100
H          5.06400       -4.26900       -1.68000
H          1.77000       -3.54600       -4.71800
H          2.73900       -2.08100       -4.45200
H          0.49400       -3.08900       -2.57800
H          0.33100       -1.76400       -3.74900
