26
4460-86-0.pdb
C          0.98600        0.20000        0.40100
O          2.32700       -0.01000       -0.03000
C          2.90700        0.99200       -0.76500
C          2.50800        2.33500       -0.64700
C          3.14900        3.35500       -1.35900
O          2.80600        4.68100       -1.28500
C          1.74600        5.04000       -0.40400
C          4.21700        3.01700       -2.19900
C          4.92500        4.05700       -2.97900
O          5.85300        3.78600       -3.73400
C          4.63800        1.68800       -2.30700
C          3.98600        0.66900       -1.60300
O          4.54400       -0.56600       -1.79500
C          3.66700       -1.68400       -1.74500
H          0.61500       -0.74300        0.81400
H          0.33800        0.47900       -0.43800
H          0.93900        0.94600        1.20100
H          1.70700        2.58600        0.03700
H          1.60500        6.12300       -0.47000
H          1.99900        4.80000        0.63400
H          0.80600        4.56400       -0.70400
H          4.58300        5.09800       -2.86100
H          5.47900        1.43500       -2.95100
H          4.17200       -2.52000       -2.23900
H          2.73300       -1.49600       -2.28500
H          3.48200       -1.99000       -0.71200
