16
4461-33-0.pdb
O          1.34800       -2.21400       -0.80800
C          2.52200       -2.17300       -0.74300
N          3.69200       -2.17300       -0.71200
C          4.25400       -1.22500        0.10200
O          3.64100       -0.38400        0.75100
C          5.74900       -1.26000        0.18000
C          6.42100       -0.32100        0.97500
C          7.81300       -0.35900        1.08000
C          8.53900       -1.33100        0.39200
C          7.87900       -2.26000       -0.41000
C          6.48800       -2.22600       -0.51800
H          5.86500        0.44100        1.52000
H          8.33100        0.36700        1.70200
H          9.62200       -1.36500        0.48100
H          8.44600       -3.01600       -0.94800
H          5.99600       -2.96400       -1.14800
