23
4463-33-6.pdb
C          1.04900       -0.01100       -0.36700
O          2.41600        0.04200        0.02300
C          3.04700       -1.17100        0.20900
C          2.66000       -2.33200       -0.46900
C          3.35500       -3.51600       -0.26800
C          4.43900       -3.54000        0.60300
C          4.86600       -2.38600        1.29500
C          6.05700       -2.57000        2.19200
C          4.16000       -1.18100        1.09400
O          4.38900        0.04800        1.65800
C          5.44100        0.27800        2.57000
H          0.65700        1.01100       -0.35300
H          0.46000       -0.60600        0.33700
H          0.93600       -0.38300       -1.38900
H          1.83800       -2.33600       -1.17400
H          3.06000       -4.41800       -0.79700
H          4.96600       -4.48400        0.73500
H          6.42700       -3.60200        2.16300
H          5.79700       -2.37300        3.23500
H          6.89200       -1.94400        1.86800
H          5.39800        1.33200        2.86400
H          6.41600        0.12300        2.10400
H          5.31300       -0.30600        3.48400
