21
4466-24-4.pdb
C          0.94000       -0.25700        0.12300
C          2.46000       -0.20400        0.14100
C          2.95600        1.09800        0.77000
C          4.48300        1.16700        0.80000
C          4.94700        2.43000        1.42700
O          5.11200        3.49800        0.59600
C          5.53000        4.53700        1.36400
C          5.63600        4.15100        2.68000
C          5.25600        2.78800        2.72300
H          0.59600       -1.19200       -0.33100
H          0.52600        0.57500       -0.45600
H          0.53500       -0.20300        1.13900
H          2.83700       -0.29100       -0.88500
H          2.84500       -1.06200        0.70400
H          2.56200        1.18300        1.79100
H          2.55800        1.95200        0.20700
H          4.88200        1.09400       -0.21900
H          4.88500        0.31500        1.36000
H          5.70600        5.46500        0.83900
H          5.94700        4.77600        3.50400
H          5.21000        2.14400        3.59000
