24
4469-80-1.pdb
C          1.58700       -0.76400        1.54100
C          2.76500       -0.29500        0.70400
C          3.30900        1.03100        1.22300
O          4.41900        1.42900        0.41900
C          5.02300        2.60700        0.77200
C          4.63400        3.43900        1.82100
C          5.33100        4.62500        2.07800
C          6.45100        4.97600        1.32300
N          7.05600        6.22500        1.50700
C          6.80000        4.17100        0.23800
C          6.10700        2.98500       -0.02300
H          1.20900       -1.72100        1.17100
H          0.76900       -0.03800        1.50500
H          1.88000       -0.89600        2.58800
H          2.46200       -0.18800       -0.34400
H          3.55900       -1.05200        0.71600
H          3.63100        0.90200        2.26400
H          2.51700        1.78700        1.16600
H          3.78400        3.21000        2.45300
H          4.98600        5.27300        2.87900
H          6.97200        6.58300        2.45300
H          8.01000        6.26800        1.16400
H          7.61700        4.45900       -0.41700
H          6.40500        2.36000       -0.86100
