26
4476-28-2.pdb
C          0.91500       -0.01900        0.23500
C          2.44600        0.00400        0.17300
C          3.05200       -0.57800        1.45300
C          2.96600       -0.70500       -1.06300
C          3.74400       -0.01000       -2.00400
C          4.19700       -0.63600       -3.17400
C          3.88300       -1.97300       -3.43700
C          4.28000       -2.71800       -4.69000
C          5.12200       -2.03400       -5.76100
O          4.60100       -1.03200       -6.33000
O          6.23100       -2.59400       -6.01000
C          3.12500       -2.67000       -2.48000
C          2.67400       -2.05000       -1.31200
H          0.55400        0.55500        1.09500
H          0.52000       -1.03700        0.32800
H          0.48200        0.42400       -0.66900
H          2.74900        1.06000        0.12400
H          2.76500       -1.62500        1.60500
H          2.71900       -0.01100        2.32900
H          4.14600       -0.53300        1.42200
H          3.99700        1.03500       -1.84600
H          4.77900       -0.06100       -3.89200
H          3.36000       -3.04800       -5.18900
H          4.81100       -3.62600       -4.37500
H          2.87300       -3.71400       -2.66200
H          2.08900       -2.63300       -0.61200
