18
4498-67-3.pdb
O          2.99600       -1.11600        0.29900
C          2.39200        0.06100       -0.02700
O          1.34400        0.43100        0.48500
C          3.14300        0.80600       -1.04100
N          4.27400        0.28000       -1.56300
N          4.68400        1.22300       -2.43400
C          3.88500        2.33300       -2.48600
C          3.98000        3.51200       -3.23200
C          2.97800        4.46900       -3.04200
C          1.92900        4.24800       -2.15000
C          1.85200        3.06000       -1.41500
C          2.85500        2.08700       -1.58600
H          3.81200       -1.16600       -0.25300
H          5.53000        1.05400       -2.96900
H          4.79400        3.68800       -3.92800
H          3.01700        5.40300       -3.59900
H          1.16100        5.00800       -2.02000
H          1.03200        2.89600       -0.71900
