24
4498-68-4.pdb
C          6.27800        1.00000        0.25100
C          5.33500       -0.00800        0.88000
O          5.34000       -1.18800        0.07100
C          4.49600       -1.17100       -1.00500
O          3.54300       -0.40600       -1.11800
C          4.93300       -2.08600       -2.07000
N          6.02600       -2.87000       -1.94700
N          6.14600       -3.45700       -3.14600
C          5.18100       -3.10800       -4.04600
C          4.97900       -3.48000       -5.37800
C          3.87900       -2.92100       -6.03500
C          3.02400       -2.03300       -5.38300
C          3.24900       -1.67000       -4.04900
C          4.35200       -2.22000       -3.36800
H          6.36100        1.90400        0.85900
H          5.93500        1.28300       -0.75200
H          7.27500        0.56300        0.12400
H          4.32700        0.40200        1.00500
H          5.70100       -0.28900        1.87400
H          6.92900       -4.08300       -3.29400
H          5.64700       -4.16500       -5.88800
H          3.68900       -3.18200       -7.07400
H          2.17500       -1.61100       -5.91600
H          2.58200       -0.96900       -3.55400
