30
4506-71-2.pdb
C          1.48800        0.03100       -1.09400
C          2.49300        0.42000       -0.02100
O          3.35000        1.43500       -0.55800
C          4.39000        0.97500       -1.31800
O          4.83800       -0.16200       -1.22700
C          4.83100        1.93400       -2.33900
C          4.29500        3.20400       -2.52700
N          3.35600        3.84700       -1.79700
S          4.93800        3.98100       -3.91200
C          5.93900        2.66600       -4.27300
C          6.83100        2.66200       -5.47600
C          7.40300        1.25800       -5.72300
C          7.86100        0.59700       -4.41800
C          6.69000        0.41300       -3.44100
C          5.85000        1.65800       -3.33300
H          0.76100       -0.69000       -0.71300
H          1.99400       -0.40500       -1.96200
H          0.95600        0.91700       -1.45600
H          3.05600       -0.44800        0.34100
H          1.97000        0.85400        0.83700
H          3.09400        3.49000       -0.88200
H          3.21800        4.84100       -1.92700
H          7.65400        3.36700       -5.31200
H          6.28400        2.98900       -6.36700
H          8.24000        1.32400       -6.42700
H          6.63900        0.62600       -6.19500
H          8.63500        1.22100       -3.95300
H          8.31800       -0.37700       -4.62900
H          7.09400        0.14100       -2.45900
H          6.05500       -0.41200       -3.78400
