20
451-13-8.pdb
O          2.97900       -0.43400       -3.20500
C          2.69700        0.67900       -2.48800
O          2.11300        1.64000       -2.97000
C          3.12700        0.59900       -1.04400
C          4.61900        0.45000       -0.87200
C          5.42700        1.58700       -0.72800
C          6.80200        1.44300       -0.55600
O          7.61700        2.52700       -0.41900
C          7.39100        0.18400       -0.52200
C          6.60200       -0.95300       -0.69000
C          5.22900       -0.81000       -0.87800
O          4.44500       -1.90500       -1.11900
H          3.45900       -1.10400       -2.66800
H          2.58900       -0.22700       -0.56400
H          2.78500        1.50500       -0.52800
H          4.97600        2.57600       -0.75400
H          7.08600        3.33300       -0.52800
H          8.46500        0.09300       -0.38300
H          7.07900       -1.92900       -0.68900
H          4.95400       -2.69700       -0.86200
