20
4518-10-9.pdb
C          1.08900        0.86700       -0.18700
O          2.51500        0.89300       -0.17100
C          3.04800        0.81800        1.07400
O          2.41900        0.76500        2.11800
C          4.53200        0.81100        1.00400
C          5.22500        0.91500       -0.20700
C          6.61800        0.88400       -0.21100
C          7.31700        0.75300        0.99100
C          6.64200        0.69300        2.21300
N          7.34000        0.40700        3.39100
C          5.24600        0.68300        2.20500
H          0.76500        0.77400       -1.22600
H          0.69300        1.79900        0.22400
H          0.71100        0.00400        0.37000
H          4.69500        1.00300       -1.15200
H          7.16100        0.94500       -1.15100
H          8.40300        0.69600        0.96500
H          8.30500        0.72200        3.39200
H          6.84700        0.66400        4.24000
H          4.70200        0.57300        3.14100
