13
4521-33-9.pdb
O          1.39400       -0.31300        0.46400
N          2.41100        0.02500       -0.15700
O          2.91500       -0.59700       -1.10100
C          3.04300        1.24500        0.27200
S          4.41800        1.83900       -0.53400
C          4.51000        3.19600        0.50100
C          5.55000        4.18100        0.31100
O          5.69000        5.18300        1.00800
C          3.50900        3.18400        1.45400
C          2.65100        2.05100        1.32000
H          6.25100        3.99800       -0.52200
H          3.39900        3.95800        2.20700
H          1.79600        1.84800        1.95700
