14
453-20-3.pdb
O          1.11500        0.04700       -0.07100
C          2.52700        0.00400        0.00500
C          3.02500       -1.24700        0.68800
C          4.29300       -0.80300        1.39300
O          4.36200        0.62800        1.32900
C          3.08600        1.10200        0.88700
H          0.82500       -0.72000       -0.59100
H          2.94600        0.08000       -1.00600
H          3.21600       -2.05800       -0.02200
H          2.29400       -1.63200        1.41000
H          5.19100       -1.21400        0.92200
H          4.28800       -1.10500        2.44400
H          3.20500        2.04700        0.34900
H          2.45200        1.28900        1.76200
