20
4541-32-6.pdb
C          0.90100        0.02200       -0.01300
C          2.42400       -0.01100       -0.11000
C          2.87900        0.11300       -1.56600
C          3.01400       -1.25700        0.56600
C          4.27000       -0.83400        1.33200
C          4.39600        0.67900        1.25100
C          3.07100        1.10100        0.68800
O          2.63000        2.23900        0.78200
H          0.45500       -0.82400       -0.54900
H          0.49600        0.94600       -0.44200
H          0.56600       -0.02400        1.02900
H          2.48400       -0.70700       -2.17500
H          3.97200        0.09900       -1.65100
H          2.53500        1.05800       -2.00400
H          3.24800       -2.04500       -0.15900
H          2.30100       -1.69600        1.27600
H          5.16600       -1.32300        0.93300
H          4.18500       -1.14600        2.38000
H          5.18300        0.96900        0.54800
H          4.57700        1.13200        2.22700
