33
4546-70-7.pdb
N          4.96800        0.47200       -4.34200
C          5.33100        0.31800       -3.02300
N          5.79000       -0.89300       -2.65200
C          6.18400       -1.09300       -1.37300
N          6.67600       -2.34100       -1.02000
C          6.05700       -0.03300       -0.46200
N          6.32500        0.09800        0.88600
C          6.01500        1.34500        1.17200
N          5.56400        2.02200        0.07300
C          5.12000        3.39500       -0.02800
C          5.92700        4.24300       -0.99300
C          5.74700        5.65000       -0.46200
O          4.95800        6.38500       -1.38700
C          5.14400        5.46600        0.94400
C          3.68300        5.90800        1.08900
O          3.52400        7.27100        0.71000
O          5.23600        4.06100        1.24400
C          5.55600        1.14700       -0.97300
N          5.16300        1.38600       -2.23100
H          4.75400       -0.42700       -4.75100
H          4.28800        1.20900       -4.43900
H          6.38300       -3.06600       -1.65900
H          6.63200       -2.53000       -0.02500
H          6.09700        1.80500        2.14700
H          4.05700        3.36500       -0.30000
H          5.58600        4.12000       -2.02600
H          6.98800        3.96600       -0.95500
H          6.72200        6.14600       -0.39200
H          4.36500        6.99000       -0.89300
H          5.75300        6.01200        1.67400
H          3.33300        5.76700        2.11700
H          3.02700        5.30100        0.45500
H          3.78100        7.81700        1.47500
