31
4547-57-3.pdb
C          0.55100        0.17400       -1.17800
C          2.01300        0.10000       -1.58300
C          2.77100        1.37800       -1.22500
C          4.23300        1.28200       -1.65600
O          4.89000        2.51500       -1.35700
C          6.22100        2.58900       -1.67000
C          6.97700        1.58300       -2.27200
C          8.34600        1.76500       -2.50000
C          8.98300        2.95200       -2.11900
C         10.47900        3.10800       -2.28100
C         10.99100        3.73800       -3.55700
O         10.07100        4.08600       -4.48100
O         12.18600        3.91900       -3.75600
C          8.21300        3.97800       -1.55500
C          6.84500        3.79200       -1.33100
H          0.03800       -0.75600       -1.44500
H          0.04400        0.99900       -1.68800
H          0.44900        0.32000       -0.09800
H          2.07600       -0.07800       -2.66300
H          2.48000       -0.76000       -1.08700
H          2.71800        1.56400       -0.14500
H          2.30300        2.24600       -1.70600
H          4.27700        1.09500       -2.73500
H          4.71300        0.45900       -1.11200
H          6.53800        0.63300       -2.55900
H          8.91400        0.95100       -2.95100
H         10.94200        2.11700       -2.19900
H         10.85600        3.70800       -1.44400
H          9.14500        3.90300       -4.22800
H          8.67300        4.91800       -1.25400
H          6.26300        4.58500       -0.86500
