35
4551-69-3.pdb
C         -2.61600       -0.53900       -0.02500
C         -1.18500       -0.12400        0.08900
N         -0.80900        1.11900        0.11900
N          0.56800        1.10500        0.08800
C          1.25800        2.34300        0.09100
C          2.62200        2.43100       -0.21500
C          3.28200        3.66500       -0.20400
C          2.59100        4.82400        0.13600
C          1.24000        4.75200        0.46100
C          0.57800        3.52200        0.43000
C          1.11500       -0.18100       -0.02500
O          2.26800       -0.52700       -0.21400
C         -0.05300       -1.11700        0.15200
C         -0.04000       -1.86800        1.46700
O         -0.95600       -1.73500        2.28000
C          1.05200       -2.83100        1.81100
C          2.01400       -3.26700        0.89700
C          3.01600       -4.15500        1.30300
C          3.04500       -4.63600        2.61100
C          2.07500       -4.23000        3.52000
C          1.08600       -3.32900        3.12300
H         -3.25700        0.34000       -0.13200
H         -2.92800       -1.09800        0.85900
H         -2.73400       -1.17300       -0.90800
H          3.20200        1.55700       -0.49200
H          4.33700        3.71500       -0.46400
H          3.10600        5.78100        0.15100
H          0.69800        5.65100        0.74200
H         -0.47500        3.49100        0.70000
H         -0.14200       -1.80300       -0.69600
H          2.02700       -2.93000       -0.13500
H          3.78200       -4.46600        0.59500
H          3.82500       -5.32800        2.91900
H          2.08900       -4.60800        4.54200
H          0.34100       -3.01400        3.85200
