20
4563-33-1.pdb
N          1.16800       -0.89700       -0.40100
S          2.84500       -0.89100       -0.59900
O          3.12600       -2.07500       -1.38000
O          3.13700        0.44300       -1.07200
C          3.38600       -1.09400        1.10000
C          4.89000       -1.11800        1.16200
C          5.62400        0.07500        1.23200
C          7.01600        0.04400        1.33000
C          7.68900       -1.17600        1.35700
C          6.97000       -2.36700        1.27300
C          5.57800       -2.33900        1.17200
H          0.74800       -1.51300       -1.10200
H          0.80400        0.05700       -0.44100
H          2.95800       -2.02500        1.48300
H          2.98900       -0.25500        1.68200
H          5.11900        1.03900        1.20900
H          7.57800        0.97400        1.38700
H          8.77300       -1.19900        1.43800
H          7.49500       -3.31800        1.28500
H          5.03600       -3.27900        1.10200
