25
458-35-5.pdb
C          1.07600       -0.09000       -0.01600
O          2.49600       -0.11700       -0.02500
C          3.14500        1.09100       -0.04500
C          2.50900        2.33700       -0.04500
C          3.24600        3.53100       -0.08600
C          2.59400        4.85100       -0.07000
C          1.39100        5.11000       -0.60700
C          0.72600        6.44600       -0.58400
O          0.49400        6.85200       -1.92300
C          4.64500        3.46000       -0.08700
C          5.29600        2.22300       -0.08200
C          4.54500        1.04900       -0.06400
O          5.17800       -0.16500       -0.06000
H          0.71800       -1.12400       -0.02600
H          0.68200        0.40600       -0.91100
H          0.69800        0.38400        0.89600
H          1.42600        2.39800       -0.00300
H          3.15800        5.65100        0.40700
H          0.82100        4.32800       -1.10400
H          1.32800        7.21000       -0.08400
H         -0.23900        6.37800       -0.07300
H          1.36300        6.88800       -2.35900
H          5.24400        4.36800       -0.10200
H          6.38100        2.19500       -0.09400
H          6.13800       -0.02500       -0.04800
