24
4602-73-7.pdb
C          1.12600       -0.46600        0.32400
O          2.49300       -0.13200        0.10200
C          3.06700        0.69300        1.03300
C          4.08700        1.51100        0.52300
C          4.77700        2.40500        1.35400
C          5.85400        3.29200        0.81000
C          6.53700        4.22800        1.81200
N          6.08400        4.18800        3.20500
C          5.15100        3.39000        3.57100
C          4.44100        2.45800        2.70100
C          3.44700        1.63700        3.23600
C          2.76600        0.75200        2.40000
O          1.82300       -0.06900        2.95200
H          0.73700       -0.90600       -0.59900
H          0.52700        0.42300        0.54700
H          1.02200       -1.22900        1.10000
H          4.33300        1.45000       -0.53400
H          5.42800        3.90100        0.00300
H          6.62300        2.66000        0.34700
H          6.43400        5.26000        1.45600
H          7.61500        4.02500        1.80500
H          4.85300        3.40400        4.63500
H          3.21500        1.69100        4.29400
H          1.81200        0.04500        3.91500
