20
46118-95-0.pdb
C         -2.43700       -0.09600       -0.00700
C         -0.94000       -0.05900       -0.01300
C         -0.18100       -1.20600        0.00100
C          1.18500       -1.03100       -0.00500
N          1.78500        0.18100       -0.03500
C          0.96000        1.23700       -0.05700
S          1.64100        2.87300       -0.04200
C          2.58300        2.85700       -1.60700
C          3.26500        4.19200       -1.86600
O          3.05700        5.15000       -0.92900
O          3.95700        4.40600       -2.85200
N         -0.37800        1.17100       -0.03600
H         -2.81900       -1.12100       -0.01000
H         -2.82300        0.41600       -0.89400
H         -2.81600        0.41000        0.88600
H         -0.62700       -2.19600        0.01700
H          1.85600       -1.88500        0.00800
H          1.91400        2.65700       -2.45100
H          3.36400        2.09100       -1.55300
H          2.48200        4.82000       -0.20500
