22
4616-63-1.pdb
O          1.40900        2.32800       -0.07000
C          1.09500        1.15300       -0.04500
N          1.85800        0.02600       -0.01400
O          3.25100        0.04200       -0.14400
C          3.81700        0.62500        1.02800
C          5.33600        0.59700        0.99500
C          6.64000        0.57200        0.96600
C          1.13700       -1.12700       -0.01700
O          1.49200       -2.29200       -0.03800
C         -0.26700       -0.70100       -0.00100
C         -1.43400       -1.44200        0.02300
C         -2.64400       -0.73400        0.02300
C         -2.65900        0.67700       -0.00000
C         -1.46700        1.40500       -0.02000
C         -0.28900        0.68300       -0.02000
H          3.47600        0.08400        1.91900
H          3.51700        1.67500        1.11400
H          7.70500        0.55000        0.93700
H         -1.41400       -2.52700        0.03800
H         -3.58700       -1.27700        0.03800
H         -3.61300        1.20300       -0.00400
H         -1.46300        2.49100       -0.03900
