15
4621-66-3.pdb
N          1.19900        0.05400       -0.27800
C          2.53000        0.01700        0.05500
S          3.17100        1.34500        0.84200
C          3.27900       -1.21100       -0.31700
C          2.94200       -1.94300       -1.46000
C          3.66400       -3.09200       -1.78500
C          4.70500       -3.47300       -0.95500
N          5.06200       -2.79400        0.15500
C          4.34600       -1.67700        0.44700
H          0.65600        0.86500       -0.00000
H          0.68800       -0.73500       -0.65300
H          2.14300       -1.61900       -2.12000
H          3.42500       -3.67100       -2.67000
H          5.29900       -4.35700       -1.16900
H          4.67000       -1.17000        1.35200
