24
4630-82-4.pdb
C          1.27500        1.91300       -1.76300
O          2.69800        1.84000       -1.66400
C          3.14300        1.14700       -0.57700
O          2.42400        0.62800        0.26600
C          4.66100        1.13900       -0.55400
C          5.18700       -0.12100        0.14400
C          6.71000       -0.10700        0.25600
C          7.20500        1.15700        0.95200
C          6.69300        2.41500        0.25700
C          5.17100        2.41000        0.13100
H          1.02700        2.45900       -2.67800
H          0.86000        2.45800       -0.91000
H          0.84200        0.91000       -1.83200
H          5.01400        1.11500       -1.59400
H          4.86700       -1.01400       -0.40700
H          4.75600       -0.20700        1.15000
H          7.15100       -0.17000       -0.74600
H          7.04700       -0.99000        0.81000
H          8.30100        1.16400        0.96900
H          6.87000        1.15400        1.99700
H          7.14000        2.48700       -0.74200
H          7.01300        3.30100        0.81500
H          4.85000        3.29500       -0.43100
H          4.72300        2.50100        1.13000
