25
4630-06-2.pdb
C          0.83300        0.01600        0.02100
C          2.35400        0.02300       -0.00100
O          2.82700       -0.87700        0.99800
C          2.90500       -0.37500       -1.37200
C          4.43600       -0.35800       -1.37900
C          4.99700       -0.71500       -2.72700
C          5.28800        0.15400       -3.71400
C          5.05200        1.63800       -3.62300
C          5.87600       -0.30900       -5.01700
H          0.46600        0.28100        1.01900
H          0.44200       -0.98400       -0.20100
H          0.42000        0.72400       -0.70300
H          2.71100        1.02400        0.26600
H          2.55600       -1.77500        0.74300
H          2.51700        0.31300       -2.13600
H          2.55800       -1.38300       -1.63700
H          4.83100       -1.06900       -0.64300
H          4.80000        0.62400       -1.05700
H          5.19000       -1.77700       -2.88100
H          4.61800        1.95400       -2.67400
H          4.36100        1.95500       -4.41200
H          5.99800        2.17700       -3.74600
H          6.03600       -1.39200       -5.04000
H          6.84600        0.17300       -5.18900
H          5.20800       -0.05300       -5.84700
