23
4641-57-0.pdb
O          1.93700        0.14800        0.30000
C          0.72300        0.05900        0.17800
C         -0.19100        1.25700        0.28100
C         -1.48700        0.76800       -0.33200
C         -1.47400       -0.72100       -0.06400
N         -0.07400       -1.07700       -0.02600
C          0.36500       -2.43200        0.00300
C          1.67400       -2.77800        0.36700
C          2.08100       -4.11600        0.43900
C          1.19100       -5.13700        0.12900
C         -0.10600       -4.81900       -0.25500
C         -0.51600       -3.48100       -0.31000
H          0.21700        2.10800       -0.27100
H         -0.31400        1.51600        1.33700
H         -1.47700        0.95200       -1.41300
H         -2.36800        1.26500        0.08400
H         -2.01700       -1.24700       -0.85300
H         -1.91500       -0.95000        0.91300
H          2.40900       -2.02500        0.63200
H          3.09700       -4.35100        0.74500
H          1.50800       -6.17500        0.18600
H         -0.80600       -5.61100       -0.51200
H         -1.53700       -3.29300       -0.62200
