14
4650-60-6.pdb
S          4.34200       -1.89300        4.29500
C          4.20300       -0.95200        3.01900
N          4.08400       -0.25000        2.08600
C          4.59200       -0.82500        0.82900
C          6.03100       -0.49900        0.64500
O          6.88400       -1.55700        0.53200
C          8.13200       -1.04400        0.37500
C          8.09300        0.33000        0.38900
C          6.73400        0.68500        0.56600
H          4.02300       -0.38800       -0.00000
H          4.42800       -1.91000        0.77600
H          8.92500       -1.77100        0.26800
H          8.94000        0.99300        0.28700
H          6.31300        1.67900        0.63500
