18
4651-97-2.pdb
C          1.03500        0.01300        0.08500
C          2.53300        0.01700        0.08900
C          3.27100        1.18200        0.08300
S          4.93800        0.89700        0.06800
C          4.73300       -0.81100        0.04300
N          5.87600       -1.53800        0.00300
C          3.38900       -1.16800        0.08100
C          2.82400       -2.53600        0.11900
N          3.53000       -3.54200       -0.48800
O          1.74200       -2.79900        0.62000
H          0.63900        1.03500        0.08000
H          0.64500       -0.48500        0.97800
H          0.65500       -0.49300       -0.80800
H          2.89700        2.19600        0.08500
H          6.74700       -1.02400        0.13100
H          5.93800       -2.51500        0.26200
H          4.32400       -3.36600       -1.08500
H          3.06100       -4.43800       -0.53900
