22
4651-91-6.pdb
N          1.09200       -0.21100       -0.03400
C          2.43000       -0.03800       -0.02000
S          3.48000       -1.39500       -0.06700
C          4.86800       -0.41400       -0.02000
C          6.25300       -0.98600       -0.06000
C          7.29200        0.08700        0.30700
C          6.99100        1.42700       -0.37800
C          5.63200        1.98500        0.06700
C          4.56300        0.93300        0.01800
C          3.14600        1.14400        0.02900
C          2.52200        2.43100        0.08400
N          2.02300        3.47800        0.12900
H          0.68400       -1.14000       -0.07500
H          0.42700        0.55700       -0.00700
H          6.45600       -1.35300       -1.07400
H          6.34900       -1.83500        0.62600
H          8.29300       -0.26100        0.02900
H          7.29600        0.23600        1.39500
H          6.99200        1.28400       -1.46700
H          7.77800        2.15400       -0.14800
H          5.36400        2.83700       -0.56800
H          5.71000        2.35300        1.09800
