15
4652-27-1.pdb
C          0.92100       -0.26700       -0.09400
O          2.31600       -0.05600        0.11100
C          3.09600       -0.94200       -0.57300
C          4.43300       -0.92400       -0.59100
C          5.35900        0.03500        0.06800
C          4.89900        1.39500        0.52600
O          6.53500       -0.31000        0.20600
H          0.37700        0.50700        0.45500
H          0.61700       -1.24400        0.29600
H          0.66400       -0.18100       -1.15500
H          2.55100       -1.71600       -1.10100
H          4.95800       -1.71000       -1.12700
H          3.90500        1.65900        0.17200
H          5.58700        2.14300        0.11800
H          4.92100        1.43600        1.61900
