20
4653-08-1.pdb
O          1.33100       -0.00600       -0.61900
C          2.55000       -0.08000       -0.04300
O          2.98500       -1.11600        0.43600
C          3.27100        1.24000       -0.00400
C          4.77800        1.02200       -0.01300
C          5.49400        2.35600        0.05100
O          5.73800        2.94300       -1.00500
C          5.78500        2.89700        1.37500
S          6.55000        4.42800        1.50700
C          6.52400        4.37600        3.21500
C          5.95200        3.21800        3.68600
C          5.52700        2.36400        2.62700
H          1.09100        0.87800       -0.95600
H          2.94900        1.77500        0.89700
H          2.98900        1.84400       -0.87300
H          5.08300        0.51400       -0.93700
H          5.10700        0.36900        0.80100
H          6.92900        5.19600        3.79000
H          5.84300        2.99000        4.74000
H          5.05200        1.40500        2.79600
