42
467-62-9.pdb
N          2.44000       -0.06400       -0.00000
C          1.04600        0.04600       -0.04400
C          0.31900       -0.56200       -1.06500
C         -1.08500       -0.54900       -1.06100
C         -1.80800        0.00700        0.00900
C         -1.05200        0.55100        1.06900
C          0.34800        0.56400        1.04300
C         -3.35900        0.05400        0.04100
O         -3.88600       -0.59300       -1.13400
C         -3.89900       -0.71700        1.28300
C         -4.09900       -0.05200        2.51300
C         -4.65100       -0.70800        3.61800
C         -5.05400       -2.03500        3.52800
N         -5.53500       -2.70600        4.65900
C         -4.76300       -2.73700        2.35900
C         -4.20900       -2.08800        1.24500
C         -3.96500        1.48000       -0.04700
C         -3.19100        2.64700       -0.14500
C         -3.77500        3.91500       -0.02700
C         -5.15500        4.06300        0.11300
N         -5.70000        5.31100        0.43300
C         -5.94100        2.91500        0.17300
C         -5.36200        1.64500        0.05700
H          2.87400       -0.17000       -0.91200
H          2.89000        0.65300        0.56000
H          0.83700       -1.04400       -1.89000
H         -1.58700       -0.98300       -1.92200
H         -1.54600        1.00000        1.92700
H          0.88500        0.99400        1.88500
H         -3.45900       -1.45900       -1.19100
H         -3.84400        0.99900        2.62100
H         -4.78000       -0.15500        4.54500
H         -6.00600       -2.09200        5.31800
H         -6.09600       -3.52300        4.43600
H         -4.98100       -3.79900        2.29300
H         -4.04200       -2.68200        0.35200
H         -2.11300        2.60400       -0.27100
H         -3.13000        4.78900       -0.02700
H         -5.16000        6.09600        0.08400
H         -6.68900        5.39300        0.22000
H         -7.01300        2.98900        0.33500
H         -6.00800        0.77100        0.11400
