25
4670-10-4.pdb
C          1.37600        0.61200       -0.19600
O          2.51100       -0.06000        0.34100
C          3.15000       -0.92900       -0.50500
C          2.75400       -1.23500       -1.81100
C          3.49500       -2.12200       -2.60100
C          3.15700       -2.46700       -4.03600
C          1.95300       -1.86900       -4.75900
O          1.69500       -0.64800       -4.55400
O          1.37000       -2.66900       -5.54900
C          4.63600       -2.72700       -2.03800
C          5.04400       -2.43300       -0.73500
O          6.14700       -2.94100       -0.10300
C          6.94300       -3.85200       -0.85100
C          4.29100       -1.53300        0.02400
H          1.00400        1.30000        0.56900
H          0.57300       -0.09600       -0.42400
H          1.64400        1.21000       -1.07400
H          1.87100       -0.77200       -2.24100
H          3.05100       -3.56000       -4.08100
H          4.02700       -2.20500       -4.65200
H          5.19200       -3.42300       -2.65800
H          7.83800       -4.07400       -0.26200
H          7.27900       -3.41600       -1.79800
H          6.40600       -4.79200       -1.01400
H          4.60200       -1.29500        1.03600
