38
4674-50-4.pdb
C          0.97200        0.26800        0.00700
C          2.44500       -0.06400       -0.27800
C          3.01200        0.97400       -1.25100
C          4.45200        0.69000       -1.59400
O          5.23700        1.58700       -1.89800
C          4.89600       -0.71800       -1.66700
C          4.09000       -1.73900       -1.32600
C          4.54400       -3.17100       -1.54400
C          4.25400       -4.11700       -0.37100
C          2.83400       -3.94600        0.19000
C          2.55000       -2.46600        0.48700
C          2.68400       -1.54200       -0.75600
C          1.66100       -1.93700       -1.84800
C          2.53400       -4.79900        1.41700
C          3.46400       -4.76100        2.59800
C          1.41500       -5.54200        1.47800
H          0.87400        1.29000        0.39400
H          0.54400       -0.40200        0.75800
H          0.35800        0.21000       -0.89600
H          2.99200        0.07400        0.67000
H          2.96800        1.96600       -0.78400
H          2.43500        1.01500       -2.18200
H          5.89200       -0.86600       -2.07100
H          5.62000       -3.21100       -1.75900
H          4.04700       -3.55700       -2.44200
H          5.00600       -3.94700        0.40900
H          4.39000       -5.15100       -0.71200
H          2.14300       -4.26900       -0.60000
H          3.24900       -2.12000        1.26600
H          1.54500       -2.37200        0.92100
H          0.64900       -2.01400       -1.43900
H          1.88200       -2.90700       -2.30600
H          1.64700       -1.20700       -2.66400
H          4.15500       -3.91600        2.55400
H          4.05400       -5.68200        2.64700
H          2.90000       -4.65900        3.53300
H          0.70100       -5.57200        0.66000
H          1.17300       -6.13300        2.35800
