27
4695-62-9.pdb
C          0.96000        0.27200        0.05600
C          2.46500       -0.00900        0.04400
C          2.71500       -1.51400        0.11600
C          3.18900        0.71800       -1.13900
C          4.67300        0.30700       -1.25400
C          5.30400        0.90100        0.02000
C          4.15200        1.72600        0.62300
C          4.56400        2.82600        1.56800
C          3.36200        2.15600       -0.61600
C          3.16300        0.71300        1.19500
O          2.97700        0.49400        2.38300
H          0.73100        1.34100        0.10500
H          0.48200       -0.18900        0.92800
H          0.48400       -0.13400       -0.84300
H          3.76000       -1.75500        0.33800
H          2.43800       -2.00400       -0.82300
H          2.12700       -1.96900        0.92100
H          2.65300        0.64600       -2.08900
H          5.12300        0.77500       -2.13900
H          4.83200       -0.77000       -1.34400
H          6.16700        1.52400       -0.24100
H          5.64300        0.10800        0.69700
H          5.21900        3.54900        1.07100
H          5.10300        2.41900        2.43000
H          3.69200        3.36600        1.95200
H          3.94300        2.79200       -1.29500
H          2.41900        2.65900       -0.38300
