29
470-67-7.pdb
C          1.29300        0.19000       -0.88700
C          2.48600        0.12500        0.07200
C          3.47800       -0.93500       -0.41300
C          3.16300        1.48600        0.30300
C          3.74300        2.19400       -0.93300
C          3.79000        3.65600       -0.47900
C          3.23000        3.56600        0.94400
C          2.63800        4.85400        1.46800
C          4.25800        2.92200        1.87500
C          4.22100        1.46400        1.42500
O          2.25600        2.50200        0.80800
H          0.82700       -0.79500       -0.98500
H          1.58800        0.51100       -1.89000
H          0.52700        0.88200       -0.51700
H          2.07900       -0.21200        1.03500
H          3.86600       -0.69500       -1.40800
H          2.99500       -1.91700       -0.46900
H          4.32800       -1.03200        0.27000
H          3.08400        2.12300       -1.80300
H          4.72800        1.81200       -1.22100
H          3.14200        4.25900       -1.12600
H          4.79800        4.07900       -0.51600
H          3.40200        5.63500        1.55700
H          2.17900        4.70300        2.45200
H          1.84300        5.21800        0.80700
H          3.94700        2.98600        2.92400
H          5.25400        3.36800        1.78800
H          3.89800        0.83700        2.26400
H          5.19700        1.10500        1.08500
