24
4714-69-6.pdb
C          1.27900        0.38900       -0.65400
N          2.48600       -0.10500       -0.00500
C          2.98400        0.63800        1.14700
C          3.22400       -1.15000       -0.55100
C          2.86800       -1.77100       -1.76000
C          3.60200       -2.83900       -2.30400
C          4.73300       -3.33000       -1.64800
C          5.10900       -2.73000       -0.44500
C          4.36600       -1.66500        0.08600
C          5.50200       -4.47700       -2.21200
N          5.52000       -4.60400       -3.57800
S          6.34600       -5.61600       -1.32100
H          0.78900        1.17000       -0.06200
H          0.54300       -0.41400       -0.77600
H          1.51100        0.82300       -1.63300
H          2.32900        1.47700        1.40800
H          3.97500        1.06000        0.94200
H          3.03800       -0.00700        2.03100
H          1.99500       -1.43800       -2.31600
H          3.24900       -3.28900       -3.22700
H          5.98300       -3.07200        0.10500
H          4.70700       -1.25400        1.03200
H          5.13800       -3.91300       -4.21100
H          6.06900       -5.35400       -3.98300
