13
4744-50-7.pdb
O          1.11200        0.26200        0.02600
C          2.29600       -0.00500        0.02700
O          3.32700        0.88800        0.02900
C          4.54500        0.27400        0.03100
O          5.62800        0.82300        0.03300
C          4.26100       -1.14400        0.03100
N          5.15000       -2.15900        0.03400
C          4.56100       -3.38400        0.03300
C          3.17200       -3.55600        0.02900
N          2.30200       -2.51200        0.02700
C          2.91700       -1.31000        0.02800
H          5.23400       -4.23600        0.03600
H          2.72700       -4.54600        0.02800
