23
4746-97-8.pdb
O         -3.41400       -0.14400       -0.12900
C         -2.20300       -0.10200        0.07400
C         -1.33000       -1.32100       -0.11200
C         -0.07100       -0.94300       -0.87600
C          0.67600        0.21400       -0.19900
C         -0.23300        1.43900       -0.08000
C         -1.53600        1.12900        0.64900
O          1.10300       -0.18200        1.10400
C          2.43100       -0.67000        0.94200
C          2.92800       -0.11000       -0.37000
O          1.82000        0.54500       -0.98200
H         -1.88700       -2.08200       -0.66700
H         -1.09200       -1.72900        0.87600
H         -0.32600       -0.65700       -1.90500
H          0.57700       -1.82500       -0.95700
H         -0.45000        1.83300       -1.08100
H          0.28900        2.24000        0.45800
H         -2.22100        1.97900        0.55700
H         -1.35900        0.95000        1.71400
H          2.40900       -1.76400        0.92800
H          3.04800       -0.35500        1.78900
H          3.29200       -0.90200       -1.03200
H          3.73700        0.61200       -0.22900
