34
475-25-2.pdb
O          4.51100        5.57800        1.20900
C          5.30600        4.46800        1.09000
C          6.63300        4.55400        0.65600
C          7.40600        3.39100        0.43700
C          6.85200        2.12300        0.66300
C          5.54100        2.07600        1.17000
O          4.92700        0.88800        1.47600
C          4.99100       -0.03900        0.38900
C          6.28800       -0.01600       -0.43600
O          5.99400        0.42200       -1.77200
C          6.93400       -1.40200       -0.47100
C          8.32000       -0.99500       -0.77700
C          9.26300       -1.61200       -1.49300
C         10.35900       -1.90000       -0.51000
O         10.96800       -2.96300       -0.51100
C         10.71500       -0.80300        0.46500
C          9.89600        0.26500        0.64900
C          8.58500        0.19800        0.02400
C          7.41000        0.87200        0.12300
O         11.85900       -1.03300        1.20200
C          4.77200        3.22600        1.38100
O          3.46700        3.10400        1.77900
H          4.98100        6.35800        0.88200
H          7.04600        5.53000        0.39000
H          8.38600        3.50300       -0.00300
H          4.12200        0.15200       -0.25200
H          4.83100       -1.02700        0.83400
H          5.63000       -0.33600       -2.26000
H          6.50900       -2.08500       -1.20900
H          6.93200       -1.87700        0.52200
H          9.83700       -0.97200       -2.18400
H         10.12600        1.02800        1.38500
H         12.11800       -1.96300        0.99200
H          3.30100        2.14800        1.84700
