19
4767-03-7.pdb
C          0.89700        0.05700       -0.01900
C          2.43800        0.03600       -0.07300
C          2.97000        1.16300       -0.96400
O          2.45600        1.03200       -2.29100
C          2.98800        0.18100        1.36400
O          2.54400        1.38700        1.98000
C          2.99500       -1.27300       -0.62200
O          2.30000       -1.82600       -1.64000
O          4.05200       -1.76800       -0.24900
H          0.53000        0.96600        0.46900
H          0.51500       -0.80600        0.53300
H          0.44000        0.03900       -1.01300
H          4.06600        1.16600       -1.01300
H          2.65400        2.14200       -0.59100
H          3.17900        0.69000       -2.85100
H          4.08500        0.16800        1.39200
H          2.64300       -0.65000        1.98700
H          3.22000        2.07100        1.82800
H          1.55100       -1.28600       -1.96000
