18
4769-96-4.pdb
O          1.49600        0.80500        0.02200
N          2.43000       -0.00600        0.10500
O          2.82300       -0.51600        1.16500
C          3.11600       -0.39100       -1.13600
C          2.70500        0.16900       -2.35100
C          3.33600       -0.20100       -3.54500
C          4.38200       -1.14500       -3.51300
C          5.20200       -1.74100       -4.51000
C          6.06100       -2.61300       -3.88100
N          5.80100       -2.56400       -2.53700
C          4.77400       -1.68000       -2.28500
C          4.16700       -1.32400       -1.07300
H          1.89300        0.89300       -2.39200
H          3.01600        0.23100       -4.49000
H          5.16300       -1.55500       -5.57500
H          6.83200       -3.26300       -4.27200
H          6.28400       -3.10200       -1.83000
H          4.49600       -1.76100       -0.13500
