22
4780-79-4.pdb
O          3.61600        0.56700        0.70300
C          2.48500       -0.02200        0.08000
C          2.91600       -1.03100       -0.95800
C          2.55400       -2.37600       -0.75900
C          2.88900       -3.35200       -1.69100
C          3.58500       -2.99900       -2.84200
C          3.95900       -1.66900       -3.07800
C          4.65200       -1.33300       -4.25400
C          5.03900       -0.02100       -4.51100
C          4.74400        0.97500       -3.59000
C          4.05300        0.65800       -2.41800
C          3.63500       -0.66300       -2.13200
H          3.27800        1.17000        1.38500
H          1.86900        0.75700       -0.38300
H          1.88400       -0.49700        0.86300
H          2.00400       -2.67200        0.13200
H          2.60600       -4.38800       -1.52200
H          3.83700       -3.77700       -3.55900
H          4.89800       -2.10200       -4.98400
H          5.57400        0.22100       -5.42500
H          5.05500        2.00000       -3.77500
H          3.85400        1.46200       -1.71400
