28
479-59-4.pdb
C         -2.38400        1.46300       -0.38900
C         -2.46500        0.03400        0.13100
N         -1.20400       -0.67900       -0.04100
C         -1.24300       -2.14000       -0.02100
C          0.03500       -2.74000        0.54700
C          1.23000       -2.19300       -0.21600
C          1.23200       -0.69000       -0.11800
C          2.45100        0.00300       -0.13300
C          2.47400        1.38800        0.00300
C          1.27800        2.08500        0.14200
C          0.04900        1.40600        0.11200
C         -1.22800        2.18500        0.28300
C          0.00800        0.00100       -0.01700
H         -3.32400        1.98900       -0.18900
H         -2.24100        1.45500       -1.47600
H         -3.26400       -0.48900       -0.40600
H         -2.73500        0.03400        1.19400
H         -1.41100       -2.50800       -1.03900
H         -2.08900       -2.48200        0.58800
H          0.00500       -3.83300        0.47900
H          0.12200       -2.48400        1.61300
H          1.18700       -2.48700       -1.27200
H          2.14900       -2.60600        0.21400
H          3.38800       -0.53900       -0.23200
H          3.42000        1.91800        0.01500
H          1.30200        3.16400        0.26600
H         -1.12900        3.18500       -0.15100
H         -1.42600        2.30200        1.35400
