21
4790-79-8.pdb
C          3.25500        0.06700        1.27200
O          2.54200        0.16500        0.03900
C          3.24800       -0.31000       -1.05500
C          2.86900        0.20000       -2.30400
C          3.52300       -0.18800       -3.47600
C          4.57000       -1.12000       -3.44100
C          4.94400       -1.67700       -2.20400
C          5.90600       -2.62700       -1.77200
C          5.76400       -2.75800       -0.40000
O          4.76500       -1.92500        0.02600
C          4.27400       -1.26400       -1.05700
C          6.56400       -3.65500        0.47500
O          7.45600       -4.35800       -0.09900
O          6.28800       -3.64300        1.71300
H          2.69900        0.63700        2.02100
H          4.25300        0.51200        1.19100
H          3.30100       -0.96700        1.62600
H          2.05800        0.92200       -2.35400
H          3.21700        0.23700       -4.42900
H          5.08000       -1.41500       -4.35300
H          6.62700       -3.16900       -2.36800
