38
4792-15-8.pdb
O          0.94500        0.10100        0.06200
C          2.36500        0.08900        0.04800
C          2.86400       -1.17500       -0.63700
O          4.28900       -1.18400       -0.64000
C          4.79400       -2.35500       -1.27800
C          6.31600       -2.32700       -1.25500
O          6.81700       -3.52100       -1.85000
C          8.24500       -3.51100       -1.91600
C          8.73300       -4.78900       -2.59500
O          8.31100       -4.79700       -3.96200
C          8.71200       -5.99400       -4.62400
C          8.16600       -5.98600       -6.04600
O          8.61400       -7.15700       -6.73500
C          8.11000       -7.18100       -8.07700
C          8.62800       -8.43600       -8.77000
O          8.17700       -9.60200       -8.08300
H          0.67600        0.92300        0.50500
H          2.73400        0.13800        1.07700
H          2.72700        0.97700       -0.47900
H          2.48500       -1.21400       -1.66500
H          2.48500       -2.05800       -0.10700
H          4.43900       -2.40400       -2.31400
H          4.43100       -3.25100       -0.75700
H          6.67200       -2.25100       -0.22100
H          6.67700       -1.44600       -1.80000
H          8.64700       -3.46200       -0.89900
H          8.57400       -2.63500       -2.48600
H          8.31800       -5.66500       -2.08400
H          9.82700       -4.82500       -2.56200
H          8.33300       -6.87300       -4.08800
H          9.80600       -6.05700       -4.64200
H          8.51200       -5.08700       -6.57100
H          7.07200       -5.96000       -6.02200
H          8.45400       -6.29100       -8.61500
H          7.01600       -7.19500       -8.04200
H          9.72200       -8.45800       -8.77500
H          8.26600       -8.48300       -9.80100
H          8.43900       -9.46800       -7.15200
