14
480-96-6.pdb
O          1.18200        0.09100        0.02100
N          2.42600       -0.06000        0.01900
O          3.22200        1.13200        0.01800
N          4.56200        0.75800        0.01600
C          4.59500       -0.58200        0.01600
C          5.70800       -1.44300        0.01600
C          5.37800       -2.81500        0.01500
C          4.03700       -3.30100        0.01600
C          2.90500       -2.46400        0.01800
C          3.25000       -1.11100        0.01800
H          6.72800       -1.08300        0.01500
H          6.19000       -3.54300        0.01500
H          3.88300       -4.38200        0.01400
H          1.88900       -2.83800        0.01900
