20
480-66-0.pdb
C          2.39000       -0.21900        1.48200
C          2.46000        0.04200        0.00000
O          1.75400        0.91900       -0.51100
C          3.26500       -0.82400       -0.91300
C          2.84600       -0.94200       -2.25500
O          1.74000       -0.30100       -2.75600
C          3.54300       -1.72800       -3.17300
C          4.68800       -2.39200       -2.76000
O          5.42400       -3.14900       -3.62200
C          5.13400       -2.29200       -1.44700
C          4.42600       -1.50900       -0.52700
O          4.92500       -1.40500        0.74100
H          1.92200        0.64800        1.96200
H          3.36500       -0.32800        1.95000
H          1.76800       -1.09700        1.67000
H          1.44800        0.36000       -2.08700
H          3.18100       -1.79900       -4.19400
H          5.04100       -3.06700       -4.51300
H          6.04100       -2.81800       -1.16500
H          5.75500       -1.90900        0.80600
