33
480-44-4.pdb
C          2.17100       -0.76200        1.65700
O          2.39300        0.02100        0.48800
C          3.00600        1.22300        0.70800
C          3.94200        1.46900        1.70900
C          4.50300        2.74400        1.84600
C          4.14700        3.79200        0.98300
C          3.22000        3.52200       -0.03400
C          2.66800        2.24500       -0.17700
C          4.74600        5.13100        1.17200
C          5.01800        5.93800        0.13300
C          5.68000        7.22300        0.38400
O          5.92400        8.00900       -0.52500
C          6.07100        7.51900        1.76500
C          6.80400        8.66500        2.09100
O          7.20500        9.58100        1.15800
C          7.17200        8.90900        3.41000
C          6.78800        8.00600        4.40000
O          7.12800        8.20400        5.70600
C          6.05500        6.86400        4.08500
C          5.70800        6.61400        2.75900
O          5.03000        5.45200        2.49400
H          1.51400       -1.59300        1.38400
H          1.66700       -0.17800        2.43600
H          3.10600       -1.18900        2.03100
H          4.26800        0.68700        2.38600
H          5.23600        2.90400        2.63600
H          2.90200        4.29800       -0.72500
H          1.95300        2.05200       -0.97500
H          4.81300        5.69500       -0.90000
H          6.86500        9.29600        0.28000
H          7.75000        9.79800        3.64500
H          7.66700        9.01000        5.77100
H          5.76800        6.17100        4.87300
