24
480-63-7.pdb
C          2.18000        1.84500        0.01500
C          1.05300        0.85700       -0.05100
C          1.29800       -0.51800       -0.01400
C          0.24800       -1.44900       -0.00000
C          0.60500       -2.90900        0.11600
C         -1.08900       -0.97700       -0.05900
C         -1.34900        0.41000       -0.12000
C         -2.73500        1.00600       -0.14100
C         -0.26900        1.31000       -0.09700
C         -2.23600       -1.92500        0.02300
O         -2.18400       -2.90800       -0.90200
O         -3.15200       -1.80500        0.81700
H          3.15300        1.35100       -0.07100
H          2.15300        2.37800        0.97100
H          2.10100        2.56900       -0.80300
H          2.32800       -0.86700        0.04100
H          1.67000       -3.03700        0.33800
H          0.41300       -3.43300       -0.82400
H          0.04800       -3.38200        0.93000
H         -3.48600        0.31800       -0.53600
H         -2.75400        1.88600       -0.79500
H         -3.02300        1.31700        0.86900
H         -0.46200        2.38200       -0.10000
H         -1.46100       -2.80600       -1.54800
