29
4808-48-4.pdb
O          2.24500       -0.43200       -0.15000
C          1.10100       -0.03200       -0.05000
O          0.00100       -0.80700        0.04400
C         -1.09700       -0.03000        0.11800
O         -2.24300       -0.42800        0.19300
C         -0.66400        1.37100        0.08100
C          0.66500        1.37100       -0.02100
C          1.56500        2.51500       -0.12900
C          2.05900        3.14000        1.02200
C          3.00000        4.16700        0.91600
C          3.44100        4.58600       -0.33800
C          2.92200        3.99700       -1.48900
C          1.98000        2.97100       -1.38700
C         -1.56600        2.51700        0.10900
C         -2.08900        3.03700       -1.08300
C         -2.95500        4.13400       -1.05700
C         -3.30600        4.71700        0.15900
C         -2.78700        4.20900        1.34900
C         -1.91900        3.11400        1.32500
H          1.74100        2.82000        2.01100
H          3.40400        4.62800        1.81400
H          4.19300        5.36800       -0.41800
H          3.26500        4.32500       -2.46800
H          1.59700        2.52000       -2.29900
H         -1.83500        2.59600       -2.04400
H         -3.35800        4.53100       -1.98500
H         -3.98600        5.56500        0.18000
H         -3.06300        4.66300        2.29700
H         -1.53000        2.73200        2.26600
