32
4815-30-9.pdb
C          1.75000       -1.20400       -0.54900
C          2.74600       -0.09600       -0.25200
O          3.53200        0.12300       -1.42800
C          4.61300       -0.68900       -1.59900
O          5.12200       -1.34800       -0.69800
C          5.00600       -0.73500       -3.00600
S          4.10200        0.12600       -4.16800
C          5.02900       -0.45400       -5.46100
N          4.68900       -0.06500       -6.70800
C          6.07200       -1.27400       -5.04900
C          6.04600       -1.45400       -3.59300
C          7.00000       -2.29500       -2.79000
C          7.07600       -1.82700       -5.97800
O          8.05400       -2.47400       -5.62200
O          6.86300       -1.45500       -7.27700
C          8.00500       -1.49200       -8.13900
C          8.74500       -0.17500       -7.98900
H          1.07900       -1.37100        0.29800
H          2.26800       -2.14000       -0.78100
H          1.15300       -0.95200       -1.43200
H          3.36800       -0.32800        0.61900
H          2.21100        0.83600       -0.04100
H          4.03700        0.70100       -6.84300
H          5.31000       -0.25100       -7.49300
H          7.74100       -2.81700       -3.39200
H          6.45000       -3.06200       -2.23400
H          7.54400       -1.66800       -2.07500
H          7.63300       -1.59400       -9.16400
H          8.65100       -2.35200       -7.93500
H          8.07100        0.66500       -8.19200
H          9.59800       -0.11800       -8.67000
H          9.10300       -0.04500       -6.96200
