27
4815-29-6.pdb
C          1.50500       -0.53100        1.07000
C          2.42100       -0.44600       -0.14000
O          3.26200       -1.60400       -0.12900
C          4.40300       -1.48700        0.61300
O          4.86600       -0.41100        0.98300
C          4.96500       -2.77000        1.02300
C          4.47800       -4.03700        0.68900
N          3.43700       -4.35900       -0.11000
S          5.37300       -5.31100        1.45300
C          6.37500       -4.20700        2.19300
C          7.51700       -4.37200        3.12000
C          7.68000       -2.91500        3.65000
C          6.99900       -1.97700        2.60500
C          6.07900       -2.90800        1.89900
H          0.79500        0.29700        1.08700
H          2.08600       -0.51900        1.99800
H          0.95200       -1.47700        1.06000
H          2.99300        0.48800       -0.15000
H          1.82800       -0.47600       -1.06000
H          2.78200       -3.63800       -0.40900
H          3.05500       -5.29900       -0.07900
H          8.41400       -4.68500        2.57600
H          7.31800       -5.07100        3.93700
H          8.72600       -2.64900        3.82700
H          7.15000       -2.82200        4.60700
H          7.74100       -1.57400        1.90800
H          6.47800       -1.15400        3.10000
