30
4815-34-3.pdb
C          6.21600       -0.71400       -0.75400
C          5.15500        0.36200       -0.60700
O          5.13400        0.77000        0.76400
C          4.37000       -0.00100        1.59300
O          3.47200       -0.74400        1.21000
C          4.81500        0.10200        2.97900
C          5.87100        0.95900        3.44800
C          6.13800        0.83100        4.79700
S          5.09400       -0.33100        5.49800
C          4.30900       -0.66000        4.01700
N          3.33400       -1.58900        3.96300
C          7.12300        1.56800        5.60500
C          7.43500        2.89900        5.27700
C          8.35600        3.63100        6.03000
C          8.98500        3.04300        7.12200
C          8.70200        1.72000        7.45500
C          7.78000        0.98700        6.70000
H          6.32100       -1.02600       -1.79800
H          5.96800       -1.59100       -0.14700
H          7.18200       -0.34700       -0.39100
H          4.17400        0.01800       -0.95200
H          5.42500        1.23800       -1.20600
H          6.42300        1.63100        2.80000
H          2.94000       -1.98400        4.80900
H          2.76700       -1.69800        3.12100
H          6.94900        3.38900        4.43600
H          8.57500        4.66100        5.76500
H          9.69600        3.61100        7.71400
H          9.19500        1.25400        8.30400
H          7.59000       -0.04800        6.97800
