30
482-89-3.pdb
O          0.75600        0.06400        0.33300
C          1.93900        0.14100        0.08500
C          2.88800        1.33300        0.00000
N          4.18000        0.79400        0.04700
C          4.10800       -0.60200       -0.06300
C          5.10500       -1.55500       -0.05800
C          4.73500       -2.91900       -0.06700
C          3.38400       -3.32000       -0.06900
C          2.38100       -2.36300       -0.04700
C          2.78400       -1.03900       -0.03200
C          2.45400        2.60000       -0.12100
N          3.14600        3.82200       -0.14600
C          2.23200        4.87600       -0.02300
C          2.43300        6.24200       -0.01300
C          1.30400        7.09100       -0.00000
C         -0.00700        6.57600       -0.00700
C         -0.21100        5.20500       -0.04900
C          0.91800        4.40800       -0.07200
C          0.98300        2.96400       -0.23000
O          0.01100        2.31000       -0.53800
H          4.98900        1.32600       -0.23000
H          6.15500       -1.28700       -0.03300
H          5.50400       -3.69000       -0.05600
H          3.11900       -4.37500       -0.06500
H          1.32700       -2.62200       -0.02500
H          4.10500        3.89100        0.16200
H          3.42700        6.67500       -0.03600
H          1.43700        8.17100       -0.00400
H         -0.86500        7.24700       -0.00800
H         -1.20200        4.76300       -0.08300
