21
4837-88-1.pdb
C          3.13700       -0.57000        0.90700
O          2.40900        0.26500        0.00900
C          3.15900        0.81900       -1.00000
C          4.24800        0.15100       -1.58200
C          5.01000        0.75900       -2.57800
C          4.68000        2.03700       -3.01200
C          3.56200        2.68100       -2.46100
C          2.77200        2.09600       -1.45200
C          1.54200        2.75100       -0.88600
N          3.26300        4.00800       -2.97000
O          4.12400        4.88200       -2.79300
O          2.19000        4.16100       -3.56700
H          2.56900       -0.64300        1.83800
H          4.12100       -0.15100        1.15200
H          3.23800       -1.57900        0.49200
H          4.51300       -0.85800       -1.27800
H          5.85700        0.23400       -3.01200
H          5.28000        2.51900       -3.78100
H          1.50600        3.82600       -1.07800
H          1.50700        2.63700        0.20300
H          0.64600        2.29400       -1.32100
