23
4839-46-7.pdb
C          1.03900       -0.24300       -0.00500
C          2.57300       -0.05000        0.02100
C          3.00400        0.48900       -1.35600
C          2.86600        0.99000        1.14100
C          4.31800        1.36900        1.35200
O          4.47600        2.22500        2.38800
O          5.26100        0.96700        0.69200
C          3.27500       -1.39200        0.34500
C          2.93700       -2.52600       -0.59700
O          3.79800       -2.65000       -1.62900
O          1.96800       -3.25800       -0.45700
H          0.52500        0.71400       -0.15000
H          0.68000       -0.67400        0.93700
H          0.72400       -0.90300       -0.82000
H          2.61600        1.50000       -1.52400
H          2.62400       -0.14200       -2.16800
H          4.09200        0.52700       -1.46300
H          2.49600        0.59500        2.09600
H          2.32200        1.91900        0.92700
H          3.64400        2.46800        2.84000
H          3.00200       -1.72900        1.35400
H          4.36500       -1.28800        0.36800
H          4.53100       -2.00500       -1.61600
