39
484-47-9.pdb
N          0.94400        0.56500       -0.00600
C         -0.35300        1.01500        0.05800
N         -1.18100       -0.01300        0.05000
C         -0.39400       -1.14900        0.05700
C         -0.96500       -2.49200        0.07300
C         -2.15600       -2.74600       -0.61900
C         -2.63800       -4.05400       -0.74500
C         -1.93600       -5.11700       -0.18100
C         -0.78600       -4.87000        0.56200
C         -0.32700       -3.56000        0.71900
C          0.95400       -0.81400       -0.01700
C          2.19500       -1.59000       -0.10900
C          2.25100       -2.76900       -0.86700
C          3.37900       -3.59100       -0.83800
C          4.49500       -3.21000       -0.10000
C          4.48300       -2.00800        0.60400
C          3.33800       -1.20700        0.60700
C         -0.71300        2.43500        0.09200
C         -1.90800        2.86700       -0.49800
C         -2.27400        4.21600       -0.46900
C         -1.45200        5.14900        0.15800
C         -0.26300        4.73600        0.75600
C          0.10600        3.38700        0.72200
H          1.75600        1.15100       -0.08600
H         -2.69800       -1.92800       -1.08800
H         -3.55200       -4.24100       -1.30300
H         -2.28600       -6.13700       -0.31600
H         -0.23200       -5.69300        1.00700
H          0.56700       -3.39200        1.31500
H          1.39400       -3.08700       -1.45800
H          3.37400       -4.53200       -1.38100
H          5.37100       -3.85300       -0.07100
H          5.35900       -1.70600        1.17300
H          3.34200       -0.30000        1.20600
H         -2.56100        2.14700       -0.98700
H         -3.20400        4.53400       -0.93200
H         -1.74300        6.19600        0.19100
H          0.37100        5.46200        1.26000
H          1.02300        3.09000        1.22400
