32
485-72-3.pdb
C          0.53300       -3.82400       -3.78600
O          0.72400       -2.52300       -3.21600
C          2.02200       -2.16100       -3.19300
C          2.88700       -2.61300       -4.12900
C          4.17500       -2.22000       -3.96700
C          4.54700       -1.01200       -3.37800
C          3.75200       -0.59900       -2.35600
C          2.51200       -1.25700       -2.22400
C          5.30800       -0.18100       -4.39700
C          5.01300        1.12600       -4.02900
O          4.58800        1.79200       -5.27500
C          3.48300        1.14500       -5.78900
C          2.25300        1.68800       -5.46700
C          1.19500        1.22200       -6.19400
O         -0.00300        1.87500       -6.13300
C          1.39600        0.15800       -7.10800
C          2.64100       -0.53200       -7.21700
C          3.65800       -0.03700       -6.48500
C          4.96500       -0.71300       -6.05300
O          5.64400       -1.60100       -6.62000
H         -0.53600       -4.02400       -3.72800
H          1.06000       -4.57700       -3.19100
H          0.83100       -3.90500       -4.84000
H          2.65400       -3.21800       -5.00400
H          4.74500       -2.56100       -4.77900
H          4.03000        0.24800       -1.74000
H          1.88000       -1.04200       -1.36700
H          4.77600        2.21300       -3.74800
H          2.18300        2.40300       -4.64000
H          0.17000        2.64600       -5.59700
H          0.55300       -0.02500       -7.79400
H          2.75800       -1.30300       -7.95700
