19
485-47-2.pdb
O          1.02300        0.29800        0.19600
C          2.42900        0.17800        0.17200
O          2.85500        0.33800       -1.16300
C          3.12400        1.17200        1.13000
O          3.11500        2.39200        1.11200
C          3.84800        0.40800        2.14400
C          4.59200        0.89900        3.20200
C          5.19500       -0.02800        4.05500
C          5.04500       -1.41200        3.83800
C          4.29100       -1.88900        2.76400
C          3.70100       -0.95500        1.92900
C          2.87400       -1.19900        0.74900
O          2.61600       -2.31300        0.33300
H          0.68300       -0.14100        0.99000
H          3.65400       -0.19400       -1.30500
H          4.70200        1.96800        3.36100
H          5.78700        0.32300        4.89900
H          5.52400       -2.11500        4.51800
H          4.17000       -2.95600        2.59000
