20
486-74-8.pdb
O          3.24800       -0.19900        1.01100
C          2.42600        0.05900       -0.03100
O          1.21300        0.08000        0.07400
C          3.15600        0.31100       -1.30000
C          4.21800       -0.53800       -1.62300
C          4.88300       -0.31600       -2.80700
N          4.55500        0.66500       -3.66800
C          3.51400        1.46300       -3.37800
C          3.17100        2.44300       -4.30100
C          2.10400        3.31700       -4.09200
C          1.36100        3.22200       -2.92600
C          1.68700        2.24900       -1.98100
C          2.76100        1.34400       -2.19000
H          4.19700       -0.05000        0.84700
H          4.50600       -1.37100       -0.99100
H          5.71800       -0.94000       -3.11300
H          3.75000        2.52200       -5.21800
H          1.85800        4.06400       -4.84200
H          0.52400        3.89400       -2.75100
H          1.07900        2.19700       -1.07800
