20
486-73-7.pdb
O          3.08000       -1.05400       -0.80700
C          2.40600       -0.14100       -0.05700
O          1.43800       -0.43000        0.62100
C          3.04000        1.21700       -0.22100
N          4.09500        1.19100       -1.10400
C          4.71700        2.36200       -1.33300
C          4.34900        3.55500       -0.73800
C          3.27700        3.57000        0.16300
C          2.88900        4.77300        0.77600
C          1.82900        4.81000        1.68100
C          1.14500        3.64200        1.98800
C          1.51400        2.43900        1.38500
C          2.58300        2.37100        0.45500
H          3.81200       -0.58600       -1.27600
H          5.54800        2.32400       -2.03300
H          4.89700        4.46100       -0.97600
H          3.41200        5.70200        0.55300
H          1.54000        5.74900        2.14600
H          0.32000        3.66100        2.69700
H          0.95100        1.55000        1.66000
