22
486-25-9.pdb
O         -0.00300       -2.69900       -0.03300
C         -0.00200       -1.48600       -0.01400
C          1.18300       -0.60100       -0.00800
C          2.52100       -0.94000       -0.05000
C          3.44100        0.10900       -0.05400
C          3.00400        1.44700       -0.00800
C          1.64000        1.76500        0.03600
C          0.72400        0.72700        0.02900
C         -0.72400        0.72800        0.03100
C         -1.63700        1.76800        0.03100
C         -3.00300        1.45200       -0.00400
C         -3.44200        0.11300       -0.03600
C         -2.52400       -0.93700       -0.03000
C         -1.18500       -0.59900        0.00200
H          2.83500       -1.97800       -0.08700
H          4.50600       -0.10800       -0.09700
H          3.74200        2.24800       -0.01200
H          1.32100        2.80200        0.06600
H         -1.31700        2.80400        0.04900
H         -3.73900        2.25400       -0.01500
H         -4.50800       -0.10200       -0.07000
H         -2.83900       -1.97500       -0.05800
