29
486-66-8.pdb
O          2.55300       -0.06000       -0.70100
C          1.20000       -0.05800       -0.54500
C          0.42900       -1.08500       -1.06300
C         -0.92300       -1.13600       -0.74400
C         -1.49700       -0.19200        0.13800
C         -0.73400        0.90800        0.53800
C          0.61900        0.97400        0.18700
C         -2.69600       -0.63100        0.89300
C         -2.34600       -1.16100        2.08600
O         -2.71800       -2.43300        2.49800
C         -2.96700       -3.28600        1.44300
C         -2.36200       -4.53800        1.40500
C         -2.53200       -5.31500        0.25900
O         -1.84200       -6.48100        0.09000
C         -3.36100       -4.90600       -0.78700
C         -3.95900       -3.64700       -0.74900
C         -3.70100       -2.82500        0.34800
C         -3.82200       -1.35700        0.22400
O         -4.65800       -0.81700       -0.47800
H          2.82300       -0.96500       -0.94200
H          0.86200       -1.88900       -1.65300
H         -1.48900       -1.99300       -1.09800
H         -1.15000        1.66100        1.20200
H          1.23900        1.78400        0.55600
H         -1.47400       -0.86700        2.66100
H         -1.70700       -4.84500        2.21200
H         -1.16100       -6.54800        0.77900
H         -3.48000       -5.53700       -1.66500
H         -4.51900       -3.27200       -1.60300
