20
4869-46-9.pdb
C         -2.79800        0.65100       -0.05000
N         -1.34500        0.58400       -0.01100
C         -0.60700        1.74600        0.01500
C          0.72900        1.73500        0.03000
C          1.47400        3.01100        0.06000
O          0.92500        4.10800        0.07200
C          1.43200        0.43800        0.00900
O          2.66100        0.42100       -0.00800
N          0.63500       -0.69500        0.00900
C          1.27100       -1.99800        0.00400
C         -0.75900       -0.68000       -0.00600
O         -1.43000       -1.71300       -0.01800
H         -3.15700        1.68400       -0.04400
H         -3.20400        0.12300        0.81900
H         -3.15100        0.15200       -0.95800
H         -1.16100        2.68200        0.02200
H          2.57300        2.91900        0.07300
H          2.36200       -1.93200        0.00100
H          0.94400       -2.55000       -0.88300
H          0.95000       -2.55200        0.89300
