18
487-89-8.pdb
O          2.46300        0.35200       -1.22500
C          2.20200        0.08300       -0.05700
C          2.90300        0.64300        1.08200
C          3.93400        1.56000        1.00800
N          4.32500        1.87200        2.28000
C          3.58600        1.15400        3.19200
C          3.64800        1.14200        4.59100
C          2.77500        0.28900        5.27200
C          1.87100       -0.51200        4.58000
C          1.81100       -0.47800        3.18200
C          2.68700        0.36800        2.46900
H          1.38700       -0.62100        0.18600
H          4.41200        2.01700        0.15000
H          5.05600        2.52700        2.52200
H          4.35100        1.76500        5.13400
H          2.80500        0.25000        6.35800
H          1.20400       -1.17200        5.13000
H          1.09700       -1.11000        2.66100
