23
487-68-3.pdb
C          2.15400        1.85400        0.03600
C          1.03100        0.86000        0.01400
C          1.28900       -0.51000        0.01800
C          0.24600       -1.45300        0.01900
C          0.63300       -2.91000        0.03400
C         -1.10000       -1.00600        0.01500
C         -2.22100       -1.99700        0.02700
O         -2.07600       -3.21300        0.03900
C         -1.37500        0.38300        0.00600
C         -2.74700        1.00600        0.00300
C         -0.29700        1.29300        0.01000
H          3.12800        1.36000       -0.04600
H          2.14000        2.41700        0.97500
H          2.06400        2.55000       -0.80400
H          2.32300       -0.85400        0.02400
H          1.72100       -3.03700        0.01800
H          0.24400       -3.42200       -0.85100
H          0.27100       -3.39200        0.94800
H         -3.24400       -1.60200        0.02700
H         -3.57400        0.29900       -0.03000
H         -2.85500        1.65400       -0.87400
H         -2.87900        1.61200        0.90600
H         -0.50000        2.36400        0.01200
