31
4873-56-7.pdb
C          3.16400        1.08700        1.01000
C          2.53800        0.06800        0.05900
C          2.86900        0.42400       -1.39000
C          2.96800       -1.36400        0.40500
O          4.37900       -1.52800        0.33300
S          4.94700       -3.02000        0.68600
O          4.56900       -3.32000        2.05500
O          4.58100       -3.90800       -0.39700
C          6.71700       -2.85600        0.64000
C          7.47900       -3.15800        1.77200
C          8.87200       -3.07600        1.70900
C          9.50700       -2.69800        0.51900
C         11.00400       -2.60600        0.44000
C          8.73000       -2.40500       -0.61200
C          7.33600       -2.48300       -0.55500
H          2.79800        2.09600        0.79100
H          4.25500        1.09900        0.92900
H          2.90000        0.85700        2.04800
H          1.44800        0.12300        0.17500
H          3.94600        0.39200       -1.57800
H          2.51400        1.43300       -1.63000
H          2.37900       -0.27000       -2.08000
H          2.48700       -2.06900       -0.28400
H          2.63300       -1.60100        1.42100
H          7.00400       -3.46800        2.70000
H          9.45800       -3.31900        2.59300
H         11.47500       -2.88000        1.39000
H         11.30500       -1.58100        0.20000
H         11.38600       -3.28400       -0.33000
H          9.21200       -2.12300       -1.54600
H          6.74600       -2.27300       -1.44400
