24
488-23-3.pdb
C          2.90600       -0.51000        0.00700
C          1.40100       -0.46800       -0.00100
C          0.69500       -1.67600       -0.00800
C         -0.69600       -1.68300       -0.00600
C         -1.42300       -0.48600       -0.00600
C         -2.92600       -0.56600        0.00200
C         -0.73100        0.74900       -0.01600
C         -1.49100        2.05400       -0.05700
C          0.69100        0.75700        0.00600
C          1.47700        2.04800        0.03800
H          3.28100       -1.53800       -0.05400
H          3.29400       -0.07200        0.93200
H          3.30900        0.03200       -0.85400
H          1.22500       -2.62500       -0.01300
H         -1.21300       -2.64100       -0.00400
H         -3.27600       -1.60300        0.05700
H         -3.33600       -0.13100       -0.91600
H         -3.33100       -0.04300        0.87400
H         -2.57500        1.92700       -0.09100
H         -1.21500        2.61600       -0.95600
H         -1.27000        2.64900        0.83500
H          0.85100        2.94200        0.07500
H          2.10100        2.13100       -0.85700
H          2.11300        2.07500        0.92900
