17
488-17-5.pdb
C          0.91900        0.07400       -0.03000
C          2.41500        0.06900        0.06500
C          3.13700        1.26900        0.10800
C          4.53400        1.26200        0.21300
C          5.23100        0.05300        0.26600
C          4.51800       -1.13700        0.21700
O          5.14700       -2.35400        0.24600
C          3.12500       -1.13000        0.13200
O          2.45700       -2.32400        0.11300
H          0.53000        1.08800       -0.17300
H          0.48100       -0.32800        0.88900
H          0.58800       -0.52700       -0.88300
H          2.61600        2.22300        0.06200
H          5.07500        2.20400        0.25300
H          6.31200        0.06500        0.35200
H          6.10200       -2.19700        0.16700
H          3.16100       -2.99700        0.19800
