12
488-86-8.pdb
O          1.03500       -0.06400        0.19500
C          2.43500       -0.04600        0.06700
C          3.09700       -1.30700        0.61300
O          2.70300       -2.44900        0.47500
C          4.34600       -0.91400        1.37900
O          5.15800       -1.67200        1.85000
C          4.39800        0.59900        1.42400
O          5.31000        1.26600        1.85100
C          3.14000        1.12400        0.76000
O          2.79800        2.28900        0.80000
H          0.69900       -0.85200       -0.27500
H          2.69300        0.02100       -0.99700
