41
489-01-0.pdb
C          0.99000       -0.01600       -0.02600
O          2.41100        0.00200       -0.03500
C          3.03000        1.22000       -0.07100
C          2.40300        2.46200       -0.09000
C          3.13100        3.67700       -0.10000
C          4.54900        3.56300       -0.11000
O          5.34700        4.66900       -0.03800
C          5.22500        2.31700       -0.13200
C          4.42000        1.16200       -0.08400
C          6.77000        2.15800       -0.13500
C          7.24700        2.11000        1.32900
C          7.20800        0.84700       -0.84500
C          7.55900        3.27500       -0.86300
C          2.35800        5.02500       -0.07100
C          0.81300        4.85400        0.01300
C          2.74500        5.86500        1.16900
C          2.59900        5.83600       -1.36700
H          0.66800       -1.06200       -0.02700
H          0.58300        0.45600       -0.92700
H          0.59600        0.45400        0.88200
H          1.32200        2.47900       -0.07300
H          4.85900        5.46100       -0.27800
H          4.86300        0.17100       -0.03900
H          6.81600        1.25700        1.86600
H          6.96300        3.01800        1.87200
H          8.33800        2.01800        1.38600
H          6.90100       -0.05200       -0.30100
H          8.30200        0.78700       -0.92700
H          6.79400        0.79400       -1.85800
H          7.52000        4.23800       -0.34800
H          7.20500        3.40900       -1.89100
H          8.62800        3.02800       -0.91000
H          0.51400        4.30700        0.91600
H          0.42000        4.31900       -0.86200
H          0.30600        5.82300        0.04200
H          2.55300        5.30900        2.09500
H          2.16100        6.79200        1.21100
H          3.79400        6.16900        1.19100
H          2.27400        5.27200       -2.24800
H          3.64000        6.11600       -1.53400
H          2.02900        6.77400       -1.34600
