26
490-64-2.pdb
C          1.08800       -0.39100       -0.16400
O          2.43800        0.05000       -0.10800
C          3.11400       -0.17700        1.06600
C          2.75500       -1.19700        1.96100
C          3.49000       -1.45400        3.13200
O          3.12000       -2.40600        4.04400
C          2.07500       -3.30300        3.71100
C          4.63300       -0.68800        3.41300
C          4.98800        0.33000        2.50000
C          4.24400        0.60000        1.34500
O          4.76100        1.60900        0.57400
C          3.82100        2.40600       -0.13300
C          5.51400       -0.89000        4.63400
O          5.59800       -2.05000        5.14800
O          6.16000        0.13200        5.03800
H          0.64000        0.01700       -1.07500
H          0.50900       -0.01900        0.68800
H          1.03100       -1.48200       -0.23500
H          1.89700       -1.81400        1.73900
H          2.00300       -4.05000        4.50700
H          2.28000       -3.83600        2.77600
H          1.11500       -2.77800        3.66300
H          5.87200        0.93200        2.71400
H          4.29900        3.36800       -0.35300
H          2.92000        2.61700        0.45300
H          3.57600        1.95100       -1.09500
