35
490-46-0.pdb
O          2.67400       -0.23400       -1.36100
C          2.32400       -0.08100        0.02300
C          2.83500        1.25900        0.54800
C          4.31500        1.22300        0.81700
C          5.05900        2.39900        1.00000
O          4.49800        3.64600        0.98800
C          6.43700        2.36100        1.20500
C          7.08400        1.13300        1.24200
O          8.43200        1.05100        1.43600
C          6.37100       -0.05000        1.09200
C          4.98900       -0.00800        0.89600
O          4.37300       -1.23000        0.76100
C          2.94200       -1.19300        0.89300
C          2.31100       -2.54300        0.58400
C          2.88600       -3.44800       -0.32600
C          2.25000       -4.65700       -0.63600
C          1.03200       -4.95800       -0.04000
O          0.35400       -6.11400       -0.31500
C          0.45500       -4.07000        0.86100
O         -0.74900       -4.36300        1.43600
C          1.08000       -2.87400        1.18000
H          2.38600        0.55900       -1.84300
H          1.23000       -0.09800        0.07600
H          2.32700        1.49900        1.49000
H          2.60800        2.04300       -0.18200
H          3.53200        3.57500        0.99700
H          6.98000        3.29200        1.33000
H          8.79000        1.95200        1.50400
H          6.88900       -1.00300        1.13000
H          2.73400       -0.99100        1.95400
H          3.83000       -3.20300       -0.81100
H          2.71600       -5.33300       -1.34600
H          0.87700       -6.62100       -0.95800
H         -0.98900       -5.23400        1.06200
H          0.59900       -2.19900        1.88100
