17
490-79-9.pdb
O          2.30800        1.13400        0.36500
C          2.29300       -0.11700       -0.14200
O          1.58700       -0.44000       -1.08500
C          3.14700       -1.09400        0.58600
C          2.82800       -2.45300        0.44300
C          3.59400       -3.40900        1.10100
O          3.30200       -4.73800        1.00900
C          4.68700       -3.04200        1.88000
C          5.01700       -1.69400        2.02000
C          4.24400       -0.72400        1.38000
O          4.55300        0.60100        1.54300
H          2.99300        1.24300        1.06100
H          1.97900       -2.74300       -0.17000
H          2.50800       -4.84900        0.45800
H          5.27500       -3.80700        2.38200
H          5.86900       -1.42400        2.63900
H          5.44000        0.66400        1.94600
