18
490-83-5.pdb
O          2.62700        0.46500        1.26000
C          2.29700        0.01600       -0.05200
C          2.96300        0.94000       -1.08400
O          2.64200        2.29900       -0.75400
C          4.48200        0.77500       -1.11400
O          5.10500        1.17900        0.13200
C          6.13000        2.06400       -0.01900
O          6.81300        2.54300        0.85400
C          6.25100        2.32200       -1.50500
O          7.16500        2.88000       -2.06400
C          5.12000        1.62700       -2.17000
O          4.84100        1.71300       -3.34900
H          2.28400       -0.19300        1.89200
H          1.20800        0.06700       -0.14500
H          2.62300       -1.02200       -0.17600
H          2.54800        0.72500       -2.07500
H          2.57900        2.32400        0.22500
H          4.76500       -0.26600       -1.29500
