46
4909-78-8.pdb
C          2.90200       -0.61100        1.31800
N          2.38900       -0.19200       -0.02600
C          0.91000       -0.32400       -0.14900
C          2.87400        1.17500       -0.37400
O          2.32900        2.13500        0.52500
C          2.63500        3.48900        0.17400
C          2.02900        4.47500        1.20600
C          2.60200        4.20900        2.61000
C          2.37600        5.91500        0.79600
C          0.49900        4.32700        1.26000
O          4.28900        1.25300       -0.36500
C          4.93800        0.51800       -1.40100
C          6.46700        0.71900       -1.32300
C          6.97800        0.38300        0.08900
C          7.14200       -0.21700       -2.33700
C          6.81400        2.17600       -1.65400
H          2.46000       -1.58100        1.56300
H          2.62700        0.13600        2.06600
H          3.98800       -0.72200        1.25200
H          2.79600       -0.82400       -0.71400
H          0.42300        0.32300        0.58400
H          0.65400       -1.37400        0.02800
H          0.62700       -0.05500       -1.17000
H          2.50100        1.39300       -1.38400
H          2.23000        3.69800       -0.82300
H          3.72300        3.62200        0.13900
H          3.69000        4.33700        2.62200
H          2.37800        3.19200        2.95100
H          2.18000        4.90400        3.34600
H          3.46100        6.07100        0.77100
H          1.95400        6.64300        1.50000
H          1.98200        6.15100       -0.19800
H          0.20300        3.32600        1.59200
H          0.05200        4.50100        0.27500
H          0.05600        5.04900        1.95600
H          4.55300        0.83400       -2.37800
H          4.72000       -0.54900       -1.27900
H          6.74100       -0.64600        0.36900
H          6.53600        1.04000        0.84700
H          8.06600        0.49700        0.15100
H          6.92400       -1.26700       -2.11200
H          8.23100       -0.09500       -2.32400
H          6.79400       -0.01600       -3.35600
H          6.35900        2.87000       -0.94000
H          6.45800        2.44700       -2.65500
H          7.89800        2.33800       -1.63200
