31
491-70-3.pdb
O          3.64500       -0.57500       -0.01600
C          2.31700       -0.26500        0.00500
C          1.88600        1.05800       -0.01100
C          0.51600        1.32900        0.00200
O          0.10300        2.63000       -0.01500
C         -0.41700        0.28100        0.02300
C         -1.88000        0.51500        0.00900
O         -2.41000        1.61500        0.03400
C         -2.73200       -0.68300       -0.05200
C         -2.17100       -1.89500       -0.03000
O         -0.81200       -2.13200        0.06000
C          0.03400       -1.04400        0.04300
C          1.40400       -1.31700        0.03800
C         -3.01800       -3.09200       -0.12900
C         -3.54400       -3.70300        1.02200
C         -4.40700       -4.80400        0.91700
C         -4.74400       -5.28500       -0.34300
O         -5.59000       -6.34600       -0.51300
C         -4.22500       -4.68300       -1.48500
O         -4.56600       -5.15000       -2.72300
C         -3.36500       -3.59700       -1.39000
H          4.16700        0.24300       -0.06700
H          2.60600        1.86900       -0.03600
H          0.85900        3.23700       -0.00900
H         -3.80000       -0.51300       -0.12100
H          1.76200       -2.34300        0.04900
H         -3.29300       -3.31800        2.00900
H         -4.80700       -5.25500        1.82000
H         -5.86000       -6.66500        0.36600
H         -5.18300       -5.88800       -2.55000
H         -2.98000       -3.14700       -2.30000
