33
491-80-5.pdb
C          0.73800        1.05800        5.35400
O          0.89900        0.37300        4.10700
C          2.18900        0.07600        3.82800
C          3.07600       -0.15300        4.81400
C          4.33900       -0.45900        4.40800
C          4.61400       -1.11200        3.20400
C          3.81500       -0.76300        2.16100
C          2.62600       -0.07000        2.49100
C          5.30500       -2.43300        3.52100
C          4.91700       -3.25000        2.48400
O          4.44300       -4.51300        3.15400
C          3.41000       -4.20000        4.02500
C          2.13500       -4.37400        3.51800
C          1.12800       -4.35900        4.43900
O         -0.12000       -4.76300        4.09600
C          1.43400       -3.98600        5.77900
C          2.73900       -3.60700        6.18100
O          3.05700       -3.42400        7.49400
C          3.72200       -3.63800        5.23800
C          5.05400       -2.92000        5.18200
O          5.74000       -2.64800        6.16700
H         -0.32700        1.23500        5.46900
H          1.25300        2.02200        5.31700
H          1.07000        0.49200        6.23800
H          2.88300       -0.19400        5.88600
H          4.91300       -0.72700        5.24000
H          4.03400       -1.08500        1.15300
H          1.99800        0.31700        1.70500
H          4.59700       -3.95900        1.64700
H          1.99400       -4.46600        2.43600
H         -0.07300       -5.09300        3.20400
H          0.62000       -4.01900        6.48800
H          2.34300       -3.77500        8.04800
