30
491-67-8.pdb
O          3.22700       -1.45700        0.00700
C          1.97400       -0.91400        0.00600
C          0.84600       -1.73500        0.00900
C         -0.42800       -1.15500        0.00100
O         -1.50500       -2.00900       -0.00900
C         -2.77600       -1.46000       -0.05300
C         -3.04700       -0.14800       -0.05900
C         -1.92400        0.79900       -0.01800
O         -2.10300        2.01100        0.00000
C         -0.56900        0.23400       -0.00200
C          0.56200        1.05100        0.00200
O          0.50300        2.42400        0.00200
C          1.83100        0.47300        0.00100
O          2.93100        1.28800       -0.00700
C         -3.85600       -2.45000       -0.08700
C         -4.36300       -2.90800       -1.30900
C         -5.35300       -3.89300       -1.33600
C         -5.84600       -4.42200       -0.14300
C         -5.36500       -3.95000        1.07800
C         -4.37700       -2.96400        1.10700
H          3.16600       -2.42600       -0.00300
H          0.93900       -2.81700        0.01500
H         -4.04800        0.26100       -0.09100
H         -0.44800        2.68300        0.01600
H          2.57300        2.19800       -0.02000
H         -3.98300       -2.51200       -2.24800
H         -5.73400       -4.25700       -2.28700
H         -6.60200       -5.20300       -0.16500
H         -5.75300       -4.35900        2.00800
H         -4.01000       -2.60800        2.06700
