26
4916-57-8.pdb
C          1.06900       -0.00800       -0.11200
C          0.44700       -1.40800       -0.10500
C         -1.06200       -1.36700       -0.05900
C         -1.82000       -1.35000       -1.23300
C         -3.20400       -1.32400       -1.13600
N         -3.87500       -1.30500        0.03600
C         -3.12700       -1.31300        1.15800
C         -1.73900       -1.34000        1.16400
C          2.57800       -0.04700       -0.06900
C          3.33300       -0.07500       -1.24500
C          4.71700       -0.09900       -1.14800
N          5.39000       -0.10500        0.02200
C          4.64400       -0.08800        1.14600
C          3.25700       -0.06300        1.15300
H          0.70500        0.57700        0.74300
H          0.74700        0.54700       -1.00400
H          0.81300       -1.98400        0.75400
H          0.76700       -1.97000       -0.99300
H         -1.34900       -1.36600       -2.21000
H         -3.82700       -1.31900       -2.02500
H         -3.68900       -1.30000        2.08800
H         -1.20300       -1.34700        2.10700
H          2.86100       -0.06800       -2.22200
H          5.34100       -0.11000       -2.03800
H          5.20800       -0.08900        2.07500
H          2.72300       -0.04700        2.09700
