27
4917-76-4.pdb
O          4.53900       -2.76700       -3.96600
C          4.10800       -2.24500       -2.79200
O          3.14300       -2.69000       -2.19800
C          4.92200       -1.05900       -2.35700
C          4.63200       -0.60000       -0.92100
S          5.08100       -1.83500        0.40200
C          4.49200       -0.92300        1.93400
C          3.00700       -0.57900        1.97000
C          2.15900       -1.80600        1.82200
O          1.37100       -1.75600        0.73600
O          2.19000       -2.79100        2.53700
C          4.87600       -1.65800        3.22200
O          5.36100       -2.91000        3.05900
O          4.76600       -1.14700        4.32800
C          5.44300        0.67100       -0.71900
O          6.70600        0.46200       -0.27800
O          5.02600        1.78500       -1.00200
H          5.29600       -2.30500       -4.37800
H          4.67200       -0.24300       -3.04900
H          5.98900       -1.28000       -2.48400
H          3.56900       -0.36700       -0.81500
H          5.07900        0.00200        1.96300
H          2.75700        0.14400        1.18600
H          2.72800       -0.09800        2.91600
H          0.94600       -2.64000        0.68900
H          5.30400       -3.20300        2.12500
H          6.88400       -0.48100       -0.06900
