22
492-88-6.pdb
C          1.10000        0.12900       -1.59800
C          2.19700        0.04500       -0.54500
O          2.87400        1.28300       -0.33800
C          2.16600        2.36100        0.11400
C          1.00700        2.27500        0.89000
C          0.32300        3.43300        1.27400
C          0.80200        4.68800        0.89900
C          1.98600        4.78400        0.16200
C          2.47700        6.12400       -0.20600
O          3.54400        6.27000       -0.79800
C          2.67400        3.62500       -0.22100
O          3.84500        3.68400       -0.93900
H          0.91600       -0.85600       -2.03900
H          1.35600        0.83500       -2.39300
H          0.15700        0.46300       -1.15200
H          2.96200       -0.64700       -0.91500
H          1.83600       -0.37600        0.39900
H          0.61700        1.31500        1.21400
H         -0.58400        3.35200        1.86800
H          0.25200        5.57800        1.19700
H          1.84900        6.98700        0.07100
H          4.09300        4.62700       -1.05300
