20
492-94-4.pdb
O          0.98600        0.06600       -0.14600
C          2.19900        0.07800        0.04100
C          3.03200       -1.08800       -0.45600
O          3.76400       -0.93800       -1.42900
C          2.83000       -2.33000        0.24800
O          2.01000       -2.36600        1.34400
C          1.96000       -3.65300        1.77100
C          2.75500       -4.45200        0.98500
C          3.32600       -3.59900        0.00900
C          2.92100        1.14200        0.69200
O          4.28800        1.11200        0.76000
C          4.68600        2.25600        1.37500
C          3.59700        3.01400        1.73400
C          2.45900        2.29600        1.29800
H          1.32300       -3.83700        2.62500
H          2.89700       -5.51800        1.09700
H          4.00000       -3.87200       -0.79300
H          5.75500        2.38500        1.47800
H          3.62200        3.96900        2.24000
H          1.41900        2.58100        1.39700
