21
492-37-5.pdb
C          1.18900        0.70700       -0.45400
C          2.46700       -0.01400       -0.02400
C          2.29400       -0.66800        1.34500
O          3.38800       -1.35400        1.76100
O          1.29900       -0.56900        2.04800
C          2.93200       -0.96800       -1.11600
C          3.79800       -0.50100       -2.11800
C          4.23600       -1.35200       -3.13400
C          3.81400       -2.67900       -3.16400
C          2.94100       -3.15200       -2.18700
C          2.49200       -2.30000       -1.17500
H          0.88800        1.44500        0.29800
H          0.35600        0.00700       -0.58200
H          1.33200        1.23800       -1.40200
H          3.24400        0.75000        0.12600
H          4.10300       -1.38500        1.09300
H          4.13100        0.53500       -2.12300
H          4.90200       -0.97800       -3.90800
H          4.15600       -3.34200       -3.95500
H          2.60200       -4.18500       -2.21700
H          1.79600       -2.69500       -0.43600
