22
4920-84-7.pdb
C          1.30600       -0.01400        0.73600
O          2.49100       -0.12300       -0.04300
C          3.00300        1.04000       -0.54700
C          2.50100        2.31700       -0.33500
C          3.12700        3.41700       -0.92100
C          4.25900        3.24400       -1.74600
C          4.76300        1.95400       -1.98500
O          5.84500        1.78500       -2.80500
C          6.06000        0.48300       -3.34300
C          4.13800        0.87000       -1.34900
N          4.84300        4.45400       -2.35000
O          4.23600        5.52500       -2.17200
O          5.89900        4.36900       -2.99100
H          1.02300       -1.02000        1.05800
H          0.48100        0.39400        0.14300
H          1.48300        0.58700        1.63400
H          1.62500        2.49700        0.28300
H          2.71800        4.40800       -0.72800
H          6.73900        0.57700       -4.19600
H          5.13000        0.03600       -3.71300
H          6.53800       -0.16300       -2.60000
H          4.51500       -0.14300       -1.46200
