14
4928-88-5.pdb
C          1.16400        0.35700       -0.19600
O          2.59000        0.42600       -0.22000
C          3.16200        0.76600        0.96700
O          2.54800        1.01900        1.99700
C          4.59600        0.78000        0.85900
N          5.42300        1.03000        1.91600
N          6.71600        0.98300        1.55200
C          6.61100        0.70100        0.25200
N          5.33500        0.56600       -0.21500
H          0.83400       -0.16800       -1.09600
H          0.74400        1.36700       -0.20600
H          0.80400       -0.20200        0.67500
H          5.17000        1.22900        2.87800
H          7.48800        0.59000       -0.37400
