18
493-09-4.pdb
C          2.25900        0.67800       -0.34200
C          2.25400       -0.67900        0.34400
O          1.11400       -1.44800       -0.05400
C         -0.03100       -0.69400       -0.03000
C         -1.23900       -1.38800       -0.07300
C         -2.44600       -0.68700       -0.03600
C         -2.44300        0.70700        0.03900
C         -1.23300        1.40300        0.07200
C         -0.02800        0.70400        0.02600
O          1.12100        1.45300        0.04900
H          2.25200        0.57500       -1.43400
H          3.15500        1.23900       -0.05800
H          2.24100       -0.57700        1.43600
H          3.14800       -1.24500        0.06500
H         -1.24000       -2.47300       -0.12400
H         -3.38800       -1.22800       -0.06100
H         -3.38200        1.25200        0.07000
H         -1.22900        2.48800        0.12300
