20
493-05-0.pdb
C         -2.33500        0.67400        0.43400
C         -1.16000        1.52100       -0.04500
C          0.12300        0.73200       -0.00500
C          1.36200        1.38400       -0.05400
C          2.54400        0.64500       -0.03000
C          2.49700       -0.74500        0.03800
C          1.26700       -1.40400        0.06400
C          0.07200       -0.67300        0.02500
C         -1.25500       -1.39300        0.06700
O         -2.36600       -0.55900       -0.28600
H         -3.27500        1.20100        0.24300
H         -2.28000        0.47200        1.51100
H         -1.07900        2.41800        0.57900
H         -1.32900        1.83300       -1.08300
H          1.41000        2.46900       -0.11200
H          3.50300        1.15500       -0.06500
H          3.42100       -1.31900        0.06500
H          1.24600       -2.49000        0.11400
H         -1.42600       -1.79700        1.07100
H         -1.24700       -2.22700       -0.64300
