39
493-77-6.pdb
C          1.37700       -0.38000        0.13200
C          0.49700       -0.83100        1.11200
C         -0.87000       -0.54700        1.01400
C         -1.39100        0.18900       -0.06700
C         -0.47100        0.64400       -1.03400
C          0.89500        0.36200       -0.94000
C         -2.83700        0.46300       -0.19900
N         -3.66100       -0.00400        0.74000
C         -4.95300        0.26600        0.54700
N         -5.43700        0.94300       -0.49400
C         -4.53300        1.37300       -1.37100
N         -3.22600        1.16000       -1.26700
C         -5.01500        2.15100       -2.53000
C         -6.38700        2.41100       -2.72000
C         -6.84500        3.15200       -3.81200
C         -5.94000        3.65200       -4.74300
C         -4.57900        3.41100       -4.58300
C         -4.12400        2.66900       -3.49000
C         -5.92300       -0.17100        1.57300
C         -5.51900       -0.86300        2.73000
C         -6.43800       -1.22900        3.72000
C         -7.78600       -0.91400        3.57300
C         -8.21900       -0.24700        2.43300
C         -7.29900        0.11600        1.44600
H          2.43700       -0.60800        0.20300
H          0.87100       -1.40900        1.95300
H         -1.53400       -0.91500        1.79400
H         -0.81900        1.22500       -1.88700
H          1.57500        0.72100       -1.70800
H         -7.11800        2.03300       -2.00600
H         -7.90900        3.33800       -3.93100
H         -6.29500        4.22900       -5.59200
H         -3.86800        3.79900       -5.30700
H         -3.05300        2.49800       -3.39000
H         -4.47000       -1.11700        2.87500
H         -6.09500       -1.75200        4.60900
H         -8.49800       -1.18800        4.34800
H         -9.27000       -0.00100        2.30900
H         -7.66700        0.64300        0.56700
