22
4938-52-7.pdb
C          0.90800        0.00800        0.06400
C          2.42800       -0.00300        0.07100
C          2.96100       -0.40200        1.44500
C          4.49200       -0.41600        1.46700
C          5.02700       -0.81200        2.84600
O          4.56800       -2.11500        3.18500
C          6.52500       -0.81900        2.88900
C          7.24000       -0.04600        3.72400
H          0.53400        0.29200       -0.92300
H          0.52100        0.72400        0.79600
H          0.51000       -0.98200        0.30900
H          2.80100        0.99100       -0.20100
H          2.78900       -0.70700       -0.68700
H          2.57400       -1.39400        1.70700
H          2.59000        0.30000        2.20200
H          4.87300        0.57600        1.19100
H          4.84600       -1.12600        0.70900
H          4.63300       -0.11900        3.60000
H          4.94300       -2.73300        2.53700
H          7.05400       -1.47400        2.20300
H          6.75100        0.62600        4.42200
H          8.32400       -0.07300        3.72300
