23
494-99-5.pdb
C          1.00100        0.51200        0.43200
O          2.33300        0.17600        0.06100
C          2.91400        0.95600       -0.90400
C          2.54700        2.30000       -1.08900
C          3.14800        3.08600       -2.07500
C          4.13900        2.55000       -2.89300
C          4.78700        3.37100       -3.96700
C          4.52900        1.22100       -2.69300
C          3.93500        0.41600       -1.70400
O          4.46900       -0.84600       -1.68300
C          3.98500       -1.78300       -0.73400
H          0.60000       -0.31700        1.02400
H          0.35800        0.63600       -0.44700
H          0.98400        1.40400        1.06500
H          1.79700        2.77300       -0.46300
H          2.83500        4.12100       -2.19200
H          4.38000        4.38800       -3.99400
H          4.61000        2.91500       -4.94600
H          5.86400        3.44400       -3.79100
H          5.31000        0.79000       -3.31700
H          4.55400       -2.70800       -0.86500
H          2.93300       -2.02300       -0.91600
H          4.16000       -1.44200        0.29200
