32
495-71-6.pdb
O          1.10600        0.08600        0.02800
C          2.33400        0.06100       -0.02300
C          3.08300       -0.34100       -1.27500
C          2.13500       -0.75700       -2.39000
C          2.90200       -1.16600       -3.63300
O          4.13000       -1.11600       -3.68800
C          2.12700       -1.63800       -4.81500
C          0.73000       -1.73200       -4.79900
C          0.04400       -2.18000       -5.93000
C          0.74900       -2.53400       -7.08000
C          2.13900       -2.44300       -7.10300
C          2.82800       -1.99600       -5.97400
C          3.13400        0.41900        1.18500
C          2.46000        0.72800        2.37400
C          3.18000        1.02200        3.53200
C          4.57400        1.01400        3.50900
C          5.25100        0.72700        2.32600
C          4.53500        0.43400        1.16400
H          3.74200       -1.18300       -1.03400
H          3.69000        0.50900       -1.60800
H          1.47400        0.08100       -2.64300
H          1.52900       -1.60500       -2.05100
H          0.14700       -1.46400       -3.92200
H         -1.04100       -2.25200       -5.91200
H          0.21200       -2.88200       -7.95900
H          2.68900       -2.71800       -7.99900
H          3.91400       -1.92900       -6.00400
H          1.37200        0.73100        2.40400
H          2.65200        1.25100        4.45400
H          5.13400        1.23200        4.41400
H          6.33800        0.72600        2.30500
H          5.09700        0.21400        0.26100
