19
495-76-1.pdb
O          1.10100       -0.22300       -0.14500
C          2.50200       -0.04400        0.00300
C          2.91200        1.25600       -0.63400
C          2.35400        2.47400       -0.17600
C          2.72400        3.69700       -0.74300
C          3.65300        3.67600       -1.75800
O          4.12800        4.76200       -2.42500
C          5.06700        4.13700       -3.32400
O          5.10400        2.69900       -3.21000
C          4.20700        2.50000       -2.20700
C          3.86000        1.27800       -1.66800
H          0.88200       -1.07300        0.27300
H          3.01000       -0.89400       -0.46500
H          2.75200       -0.03000        1.06900
H          1.61800        2.45900        0.62500
H          2.29200        4.63000       -0.39800
H          6.06700        4.53000       -3.11000
H          4.79900        4.40100       -4.35300
H          4.31400        0.36800       -2.04500
