18
496-41-3.pdb
O          1.42800        0.47800        0.55400
C          2.50000       -0.07600       -0.07100
O          2.81400       -1.24800        0.07200
C          3.17500        0.88800       -0.90400
O          2.73600        2.18800       -0.90500
C          3.53200        2.87800       -1.77100
C          3.43100        4.23800       -2.05600
C          4.33900        4.74800       -2.99100
C          5.28800        3.92300       -3.60200
C          5.37100        2.55900       -3.28500
C          4.47300        2.03000       -2.34300
C          4.24900        0.75600       -1.76300
H          1.34500        1.42100        0.29800
H          2.69000        4.86600       -1.57700
H          4.30500        5.80500       -3.24700
H          5.97500        4.34500       -4.33300
H          6.11300        1.92900       -3.76500
H          4.79400       -0.16000       -1.95000
