19
496-72-0.pdb
C          1.02900       -0.12100        0.07600
C          2.52100       -0.13700       -0.07100
C          3.25500        1.05000       -0.10400
C          4.64700        1.01200       -0.21500
C          5.32900       -0.20400       -0.35200
N          6.73800       -0.19100       -0.32300
C          4.59700       -1.41000       -0.30200
N          5.24000       -2.66000       -0.20600
C          3.20500       -1.35800       -0.13100
H          0.63100        0.89800        0.02700
H          0.73700       -0.55500        1.03700
H          0.56600       -0.69600       -0.73400
H          2.75500        2.01100       -0.01500
H          5.19900        1.94700       -0.18400
H          7.14000        0.66800       -0.68000
H          7.16000       -1.01400       -0.72800
H          6.16100       -2.68200       -0.61700
H          4.66000       -3.44000       -0.49500
H          2.64400       -2.28500       -0.03500
