17
496-14-0.pdb
C          1.55900       -1.18200        0.07400
O          2.37800        0.00800       -0.00900
C          1.54700        1.19100        0.03800
C          0.15100        0.69000        0.02300
C         -1.03700        1.40200        0.00400
C         -2.23600        0.68600       -0.00800
C         -2.22900       -0.71700        0.00100
C         -1.02200       -1.42000        0.02600
C          0.15800       -0.69600        0.03600
H          1.78600       -1.69400        1.01300
H          1.79500       -1.82400       -0.77900
H          1.77200        1.80400       -0.83900
H          1.77400        1.74000        0.95600
H         -1.04200        2.48700       -0.00200
H         -3.18400        1.21900       -0.02400
H         -3.17100       -1.26000       -0.01000
H         -1.01500       -2.50500        0.03600
