20
49600-34-2.pdb
C          2.44500        0.08500        0.05600
C          0.95400       -0.06800        0.03400
C          0.36800       -1.32300       -0.03300
C         -1.01500       -1.40100       -0.12500
C         -1.77200       -0.23000       -0.14700
C         -1.12300        0.98800       -0.03200
N         -1.74200        2.23800       -0.00500
C         -3.01200        2.67600       -0.05700
N         -4.04700        1.81800       -0.02600
S         -3.32700        4.30800       -0.17100
N          0.22500        1.07400        0.04900
H          2.95300       -0.88500        0.05600
H          2.75300        0.63300        0.95200
H          2.77200        0.63900       -0.83000
H          0.96900       -2.22500       -0.03200
H         -1.50400       -2.36900       -0.19600
H         -2.84000       -0.31800       -0.27800
H         -1.04800        2.97700        0.01500
H         -3.99300        1.04600        0.62100
H         -4.95900        2.26600       -0.03000
