17
49606-99-7.pdb
N          0.96800        0.18000        0.00000
C          2.48000        0.09900       -0.05400
C          3.10400        1.37800        0.43000
C          2.83300        2.69400       -0.26500
C          4.18900        2.05200       -0.37400
C          2.93200       -1.18400        0.73600
O          1.90700       -1.86800        1.06100
O          4.15600       -1.35100        0.92500
H          0.53500        0.74000       -0.72800
H          0.69600        0.45300        0.94700
H          0.69300       -0.82100       -0.03400
H          2.71100       -0.07900       -1.11200
H          3.22100        1.38800        1.51100
H          2.75500        3.58600        0.34700
H          2.22500        2.71700       -1.16100
H          5.01700        2.49500        0.17000
H          4.48000        1.61900       -1.32500
