35
497-76-7.pdb
O          2.80000        0.18400       -1.19800
C          2.16900        0.02700        0.07000
C          2.99800        0.62300        1.22900
O          3.12500        2.05100        1.17000
C          3.94600        2.54100        0.09600
O          3.99700        3.97700        0.12600
C          2.83500        4.65400       -0.15000
C          1.58000        4.07900       -0.38700
C          0.44900        4.88000       -0.59600
C          0.57900        6.26300       -0.57500
O         -0.50100        7.07800       -0.74000
C          1.81900        6.85200       -0.36700
C          2.93900        6.04800       -0.14800
C          5.38200        1.97200        0.23100
O          6.06600        2.44700        1.41300
C          5.35600        0.44100        0.33300
O          6.66200       -0.06500        0.67500
C          4.37400       -0.02000        1.41600
O          4.27400       -1.44600        1.43500
H          2.25700       -0.29700       -1.84800
H          2.00600       -1.04300        0.23000
H          1.19800        0.52800        0.01100
H          2.41300        0.42000        2.13400
H          3.54700        2.25600       -0.87900
H          1.43700        3.00600       -0.40100
H         -0.51300        4.40800       -0.76200
H         -1.30300        6.52900       -0.75600
H          1.91100        7.93500       -0.36200
H          3.90400        6.51800        0.03100
H          6.00200        2.29000       -0.61500
H          5.37400        2.73400        2.04400
H          5.10900       -0.01500       -0.62800
H          7.09700        0.65800        1.17400
H          4.77000        0.27700        2.39900
H          5.17600       -1.77100        1.23800
