12
497-18-7.pdb
N          1.12700        0.10200       -0.08700
N          2.53700        0.12400        0.02100
C          3.14700        1.15300        0.74100
O          2.54600        2.12800        1.18400
N          4.52000        0.97300        0.84900
N          5.28300        1.88700        1.61600
H          0.88100        0.03500       -1.07700
H          0.79100        1.03100        0.20400
H          3.02100       -0.76800       -0.01500
H          4.92300        0.06200        0.65700
H          4.62300        2.37600        2.23700
H          5.60200        2.62500        0.98200
