31
49742-56-5.pdb
C          0.99700        1.39600       -0.09900
O          2.42400        1.38000       -0.11100
C          2.96300        0.77900        0.97700
O          2.34800        0.29500        1.91800
C          4.43800        0.84600        0.91400
C          5.13300        0.88500       -0.29800
C          6.53200        0.94300       -0.30000
C          7.26900        0.97500        0.89900
C          6.53800        0.93700        2.10300
C          5.14400        0.85700        2.11500
C          8.74900        1.04300        0.91400
C          9.47600        1.68400       -0.10500
C         10.87400        1.75500       -0.07300
C         11.58800        1.19300        0.98700
C         13.08300        1.25600        1.04100
C         10.88500        0.55900        2.01100
C          9.49200        0.47600        1.96500
H          0.65600        1.81500       -1.04900
H          0.62900        2.02900        0.71400
H          0.60400        0.37900       -0.00800
H          4.60000        0.85800       -1.24500
H          7.04000        0.95100       -1.26300
H          7.04700        0.97900        3.06400
H          4.61800        0.81700        3.06700
H          8.96300        2.15600       -0.94000
H         11.39600        2.25900       -0.88400
H         13.49600        1.76000        0.16100
H         13.49700        0.24300        1.07300
H         13.40500        1.80600        1.93000
H         11.41400        0.11900        2.85300
H          8.99400       -0.05200        2.77600
