52
4975-73-9.pdb
C          4.01700        3.07200       -2.01600
C          4.62400        2.49000       -0.73700
C          3.70000        1.47500       -0.06900
C          3.35000        0.38600       -1.08000
C          2.54400        0.99400       -2.22600
C          3.42200        2.01600       -2.95700
N          2.65100       -0.72000       -0.44300
C          3.29400       -1.85100        0.02100
N          2.94100       -2.63100        0.98400
C          1.71000       -2.35000        1.71800
C          2.02000       -1.49300        2.94400
C          0.71300       -1.09300        3.62300
C         -0.13400       -2.30900        4.00100
C         -0.27800       -3.33100        2.86900
C          1.05600       -3.65400        2.18800
N          4.43100       -2.09600       -0.69700
C          5.75000       -2.09800       -0.06500
C          6.76900       -1.60200       -1.11100
O          6.75000       -2.41300       -2.30200
C          5.43300       -2.44000       -2.88500
C          4.38000       -2.94700       -1.88600
H          4.78600        3.64000       -2.55400
H          3.23000        3.78300       -1.74400
H          4.85900        3.29900       -0.03800
H          5.57400        1.99700       -0.98000
H          2.78900        1.97500        0.29000
H          4.19200        1.04700        0.81200
H          4.28200        0.03500       -1.52700
H          1.63300        1.47800       -1.85200
H          2.22500        0.21500       -2.92800
H          2.84500        2.50700       -3.74700
H          4.24300        1.48200       -3.45500
H          1.85300       -0.42500        0.10000
H          0.97600       -1.85200        1.07800
H          2.58600       -0.59800        2.66400
H          2.65000       -2.05100        3.65100
H          0.14400       -0.44800        2.94300
H          0.92600       -0.49900        4.51900
H         -1.13000       -1.97000        4.31200
H          0.31700       -2.80200        4.87000
H         -0.97300       -2.93500        2.11700
H         -0.73100       -4.25000        3.26000
H          0.88400       -4.32700        1.34000
H          1.71100       -4.19000        2.88700
H          6.00500       -3.11200        0.26300
H          5.77000       -1.43300        0.80400
H          7.78200       -1.63900       -0.69900
H          6.56800       -0.56100       -1.39500
H          5.46800       -3.09800       -3.75800
H          5.18300       -1.43200       -3.24000
H          4.59800       -3.98300       -1.60100
H          3.38900       -2.91900       -2.35200
