24
49761-82-2.pdb
C          1.05100       -0.02700        0.14400
C          2.58200       -0.00300        0.04800
C          3.05000       -0.44800       -1.34500
C          3.01500        1.46300        0.29100
O          3.15800       -0.87700        1.06500
C          2.82300       -2.20300        0.98500
O          2.10200       -2.76000        0.16700
N          3.40000       -2.97000        1.98800
C          4.23300       -2.62100        3.02100
C          4.44100       -3.77500        3.73900
N          3.80200       -4.83500        3.15900
C          3.18500       -4.33400        2.12400
H          0.59400        0.60800       -0.62100
H          0.72000        0.30900        1.13300
H          0.64400       -1.03100        0.01000
H          2.63000        0.18100       -2.13400
H          2.73900       -1.47200       -1.56600
H          4.14200       -0.44500       -1.41900
H          2.54600        2.13400       -0.44300
H          4.09800        1.60800        0.22100
H          2.71300        1.80900        1.28600
H          4.58600       -1.60600        3.15500
H          5.01900       -3.90600        4.64200
H          2.55300       -4.88600        1.42100
