22
4977-62-2.pdb
C          3.74300       -1.56300       -1.55900
C          2.97300       -0.45200       -0.86600
O          3.36900        0.82200       -1.40800
C          4.48500        1.38800       -0.85100
O          5.08100        0.91600        0.10700
C          4.88200        2.69500       -1.57800
N          4.36800        3.88700       -0.88500
C          3.13300        4.40800       -1.18500
C          2.74300        5.64900       -0.41600
O          2.40500        3.92200       -2.04400
C          6.40200        2.69500       -1.57800
N          7.66200        2.69500       -1.57800
H          3.41400       -2.54600       -1.21200
H          4.81800       -1.47100       -1.37400
H          3.60200       -1.50600       -2.64400
H          3.10700       -0.49000        0.22100
H          1.90200       -0.57000       -1.06200
H          4.52100        2.66800       -2.61200
H          4.89300        4.26100       -0.10400
H          3.38000        5.80800        0.45800
H          1.70600        5.55700       -0.06900
H          2.82300        6.52300       -1.07400
