20
498-94-2.pdb
O          0.87000        0.40200        0.63300
C          2.08100        0.00100        0.18300
O          2.23300       -1.09200       -0.34200
C          3.19900        0.99600        0.47200
C          2.94900        2.37000       -0.16200
C          3.14400        2.34900       -1.67800
N          4.45800        1.83300       -2.05200
C          4.67400        0.48300       -1.52800
C          4.55600        0.45300       -0.00300
H          0.87200        1.25300        1.10600
H          3.24000        1.09900        1.56400
H          3.65200        3.09200        0.27700
H          1.94500        2.74300        0.06600
H          3.04700        3.36900       -2.06600
H          2.35600        1.75800       -2.15900
H          5.18800        2.45200       -1.70000
H          5.67400        0.14600       -1.82100
H          3.96900       -0.21200       -1.99600
H          5.35600        1.06800        0.43000
H          4.71500       -0.56900        0.36000
