22
498-02-2.pdb
C          1.04400       -0.01900        0.11700
O          2.46400       -0.07000        0.09500
C          3.14200        1.12000        0.08000
C          2.55000        2.38600        0.08400
C          3.33600        3.55600        0.06500
C          4.73000        3.43900        0.04100
C          5.33100        2.17800        0.04000
C          4.54000        1.03100        0.06000
O          5.13300       -0.20200        0.06100
C          2.62000        4.87200        0.06900
C          3.37700        6.17800        0.05200
O          1.38900        4.88400        0.08900
H          0.67400       -1.04900        0.10600
H          0.65200        0.48300       -0.77300
H          0.68100        0.45600        1.03400
H          1.46900        2.49100        0.10100
H          5.38600        4.30100        0.02400
H          6.41500        2.10800        0.02200
H          6.09700       -0.09800        0.06900
H          4.45900        6.07400        0.03400
H          3.11200        6.74700        0.94900
H          3.08100        6.74100       -0.83800
