17
499-81-0.pdb
O          3.20000        0.63300        0.89500
C          2.44300       -0.03600        0.00500
O          1.26400        0.20400       -0.19700
C          3.16400       -1.06200       -0.76600
C          4.15400       -1.85100       -0.19800
N          4.83900       -2.79500       -0.88400
C          4.49300       -2.98200       -2.18400
C          3.47800       -2.27800       -2.82200
C          2.80900       -1.28800       -2.10000
C          3.20300       -2.58100       -4.24000
O          1.93300       -2.35500       -4.62700
O          4.06000       -3.02100       -4.98500
H          4.16600        0.50300        0.84300
H          4.43500       -1.76500        0.84900
H          5.07100       -3.74200       -2.70800
H          2.03900       -0.67100       -2.55700
H          1.28300       -2.15900       -3.92700
