24
4998-07-6.pdb
C          1.00900        0.30300        0.46100
O          2.34400       -0.01100        0.07000
C          2.94400        0.88800       -0.77500
C          2.58700        2.24600       -0.79500
C          3.21000        3.17700       -1.65300
C          2.73600        4.59600       -1.65300
O          2.25400        5.03700       -0.56500
O          2.79800        5.20500       -2.75900
C          4.22600        2.70500       -2.48000
C          4.63200        1.36300       -2.44900
C          3.99200        0.44900       -1.60300
O          4.53100       -0.81000       -1.66800
C          3.64500       -1.89800       -1.44400
N          4.95000        3.58300       -3.39200
O          5.72100        4.41300       -2.88400
O          4.90900        3.28900       -4.60000
H          0.60400       -0.56400        0.99100
H          0.37300        0.48700       -0.41300
H          0.98200        1.14800        1.15600
H          1.81500        2.63800       -0.13900
H          5.44500        1.02200       -3.08500
H          4.13300       -2.80100       -1.82300
H          2.70300       -1.77700       -1.99100
H          3.47600       -2.05600       -0.37500
