16
   
N          1.09300       -0.03300        0.35000
C          2.45700       -0.00900        0.04500
C          3.15200        1.20200        0.01600
C          4.53500        1.21500       -0.15500
C          5.18700       -0.00500       -0.25100
N          4.56800       -1.21800       -0.17300
C          3.22300       -1.17600       -0.00100
C          6.66600       -0.05800       -0.43700
O          7.08600       -1.34700       -0.48600
O          7.39700        0.91100       -0.53300
H          0.58900        0.80700        0.07900
H          0.60800       -0.87700        0.06000
H          2.62200        2.14400        0.12900
H          5.08700        2.14800       -0.19800
H          2.75000       -2.15000        0.10500
H          6.29800       -1.93300       -0.38100
