18
   
C         -1.36000       -0.07000       -0.01000
C         -0.75000        1.19000       -0.03000
C          0.64000        1.28000       -0.08000
C          1.43000        0.13000       -0.10000
C          0.80000       -1.13000       -0.07000
C         -0.59000       -1.24000       -0.09000
N         -1.20000       -2.49000        0.06000
C          2.93000        0.14000       -0.13000
O          3.59000       -0.89000       -0.15000
O          3.50000        1.36000       -0.15000
O          1.23000        2.52000       -0.10000
H         -2.44000       -0.14000        0.07000
H         -1.38000        2.07000        0.02000
H          1.41000       -2.03000       -0.05000
H         -0.65000       -3.26000       -0.29000
H         -2.16000       -2.53000       -0.27000
H          2.83000        2.08000       -0.14000
H          0.52000        3.20000       -0.09000
