42
50-07-7.pdb
C          0.87700       -1.81700       -2.54200
O         -0.17800       -1.92900       -1.59700
C          0.22400       -1.91700       -0.20700
C          1.05700       -0.64800        0.10500
C          1.80300       -0.54200        1.43900
O          2.52200        0.71900        1.51800
C          3.66900        0.77900        0.80400
N          4.20900        2.01300        0.85500
O          4.16400       -0.14800        0.17100
C         -0.10600        0.33000        0.13400
C         -1.23500       -0.26600        0.55100
N         -1.02100       -1.62900        0.53700
C         -1.36700       -2.64300        1.50000
C         -0.56000       -3.82600        1.02000
N          0.81700       -4.01300        1.42000
C          0.59300       -3.32600        0.15600
C         -2.56400        0.38000        0.47100
O         -3.58000       -0.17500        0.88000
C         -2.59000        1.76000       -0.12100
C         -1.46900        2.32800       -0.61100
N         -1.35200        3.59700       -1.16100
C         -0.20900        1.51400       -0.69100
O          0.66500        1.80100       -1.51200
C         -3.94400        2.41000       -0.14800
H          0.50500       -2.18500       -3.50000
H          1.74900       -2.40900       -2.24800
H          1.16100       -0.77000       -2.68300
H          1.74500       -0.39300       -0.69900
H          2.50300       -1.37100        1.59800
H          1.12000       -0.54800        2.30400
H          3.68400        2.75900        1.29300
H          5.01100        2.22200        0.26700
H         -1.02200       -2.35800        2.50700
H         -2.43700       -2.84700        1.53900
H         -1.15500       -4.60800        0.56400
H          1.08200       -3.38600        2.17000
H          0.85300       -3.91100       -0.72100
H         -1.99200        3.71900       -1.93900
H         -0.39600        3.70600       -1.52400
H         -3.91000        3.43400       -0.53500
H         -4.61600        1.84000       -0.80200
H         -4.38400        2.45000        0.85300
