20
50-69-1.pdb
O          0.97000       -0.34300       -0.57200
C          2.27400       -0.10800       -0.03700
C          2.79100       -1.32700        0.72900
O          3.12400       -2.39600       -0.18500
C          2.67500       -3.63400        0.38800
O          3.67600       -4.62900        0.24500
C          2.37100       -3.35100        1.86500
O          3.57700       -3.43000        2.65000
C          1.84800       -1.92800        1.78400
O          0.47400       -1.97500        1.40100
H          0.80200        0.36900       -1.21800
H          2.20900        0.75800        0.63000
H          2.94300        0.12700       -0.87100
H          3.74100       -1.04700        1.20100
H          1.77700       -3.94900       -0.15500
H          4.08100       -4.73900        1.12400
H          1.65900       -4.07200        2.27600
H          4.26400       -2.89600        2.21300
H          1.92300       -1.38300        2.73000
H          0.36800       -1.43500        0.58500
