20
50-81-7.pdb
O          2.85100       -2.30000        2.11700
C          2.38900       -2.49700        0.78400
C          2.89300       -1.35400       -0.09900
O          2.39000       -0.11300        0.42800
C          4.42400       -1.30500       -0.18300
O          4.82600       -0.20100       -1.05200
C          5.21700       -0.79200       -2.23700
C          5.32600       -2.11400       -2.27100
O          5.63900       -2.92900       -3.31600
C          4.96400       -2.51200       -0.90800
O          5.04700       -3.64800       -0.46700
O          5.46700       -0.00300       -3.32300
H          2.65700       -3.11900        2.60200
H          1.29100       -2.50000        0.81300
H          2.72700       -3.47500        0.42600
H          2.46600       -1.45600       -1.10400
H          2.53100       -0.15400        1.39300
H          4.92100       -1.15800        0.78600
H          5.74300       -2.33800       -4.08400
H          5.34400        0.90600       -2.98900
