16
5000-46-4.pdb
C          2.17800       -1.03600       -1.10800
C          2.49700       -0.03600       -0.02600
O          2.17700        1.14900       -0.13000
C          3.22900       -0.52900        1.18200
S          4.97900       -0.38600        0.96300
C          5.30200        1.35100        0.77100
O          5.59300       -0.80400        2.20800
O          5.33100       -1.05100       -0.27700
H          1.56800       -0.56200       -1.88300
H          1.61100       -1.86800       -0.68300
H          3.09800       -1.40300       -1.56300
H          2.99200       -1.58100        1.35700
H          2.93300        0.04300        2.06400
H          4.98300        1.87700        1.67100
H          4.78000        1.72300       -0.11100
H          6.37900        1.47300        0.63300
