24
501-65-5.pdb
C         -4.81900        0.07400       -0.05800
C         -4.17200       -1.16100        0.00000
C         -2.77600       -1.21900        0.04500
C         -2.03000       -0.03800        0.04100
C         -2.68100        1.19700       -0.01200
C         -4.07400        1.25300       -0.06400
C         -0.60100       -0.07700        0.07700
C          0.60100       -0.06600        0.08200
C          2.02900       -0.03000        0.05100
C          2.70200        1.19500        0.05900
C          4.09700        1.22600       -0.00900
C          4.81800        0.03500       -0.08100
C          4.14900       -1.18900       -0.07900
C          2.75500       -1.22200       -0.01200
H         -5.90400        0.11800       -0.09800
H         -4.75400       -2.07800        0.00900
H         -2.28100       -2.18600        0.08000
H         -2.10600        2.11900       -0.01600
H         -4.57600        2.21500       -0.11000
H          2.14600        2.12800        0.11000
H          4.61900        2.17900       -0.01200
H          5.90400        0.06000       -0.14100
H          4.71100       -2.11700       -0.13500
H          2.23900       -2.17900       -0.01600
