16
501-30-4.pdb
O          2.85300        1.25400       -0.57500
C          2.39400        0.07000        0.06600
C          2.84100       -1.15700       -0.67800
C          3.58700       -1.12400       -1.79500
C          3.94000       -2.38500       -2.46400
O          4.61500       -2.42600       -3.48700
C          3.42800       -3.63400       -1.85400
C          2.71000       -3.53300       -0.73400
O          2.39800       -2.34800       -0.10800
O          3.70600       -4.83800       -2.46300
H          2.49100        2.00300       -0.07200
H          1.30100        0.10300        0.10400
H          2.78600        0.05700        1.08800
H          3.94000       -0.20700       -2.24900
H          2.29300       -4.38100       -0.21000
H          4.22600       -4.59900       -3.26000
