12
502-97-6.pdb
O         -2.67900       -0.13200       -0.03800
C         -1.45600       -0.03600       -0.00500
C         -0.55900       -1.25500        0.06000
O          0.85100       -1.16500       -0.03900
C          1.45600        0.03500       -0.02000
O          2.68000        0.12900       -0.01100
C          0.56000        1.25700       -0.03300
O         -0.85300        1.16500        0.00700
H         -0.88000       -1.91900       -0.75100
H         -0.77600       -1.75800        1.00900
H          0.80700        1.81300       -0.94400
H          0.85500        1.87200        0.82400
