22
5022-29-7.pdb
C          1.20000        0.48000        0.28100
C          2.59900       -0.07100        0.04900
N          3.04600       -0.88400        1.16100
C          2.80900       -2.22700        1.26500
O          2.24800       -2.97400        0.48500
C          3.36600       -2.64900        2.54800
C          3.39000       -3.89400        3.14500
C          3.99400       -3.98700        4.40200
C          4.55500       -2.85000        5.02200
C          4.51700       -1.59900        4.39600
C          3.91100       -1.53200        3.15600
C          3.69300       -0.39300        2.26400
O          4.03200        0.74600        2.51400
H          0.89000        1.10100       -0.56500
H          1.16300        1.09300        1.18800
H          0.47200       -0.33000        0.39600
H          3.30200        0.75800       -0.08800
H          2.60200       -0.68400       -0.85900
H          2.95200       -4.75900        2.65700
H          4.03000       -4.94800        4.91300
H          5.01900       -2.94900        6.00100
H          4.94200       -0.71600        4.86300
