20
5023-94-9.pdb
N          1.10300       -0.12800       -0.18500
C          2.46200       -0.06000        0.01700
N          3.10500        1.07100        0.06800
O          2.22900        2.15500       -0.10800
C          3.24000       -1.32300        0.18300
C          2.78800       -2.50700       -0.41800
C          3.53500       -3.68100       -0.30700
C          4.73400       -3.68100        0.40900
C          5.17900       -2.49700        1.01400
C          4.43800       -1.31400        0.90400
N          6.44100       -2.49900        1.76500
O          7.09100       -3.55200        1.79500
O          6.77800       -1.44900        2.33100
H          0.70600        0.80500       -0.09900
H          0.61400       -0.80000        0.39400
H          2.84900        2.90300       -0.18900
H          1.87200       -2.51300       -1.00500
H          3.19000       -4.59300       -0.79100
H          5.30900       -4.60200        0.47800
H          4.78100       -0.39100        1.36700
