31
50257-39-1.pdb
C          2.16900        1.92000        0.03800
C          1.04100        0.93200       -0.01700
C          1.32800       -0.42400       -0.07300
C          0.31600       -1.40700       -0.09000
C          0.85100       -2.81200       -0.09200
C         -1.05000       -1.00400       -0.06300
C         -1.35300        0.37700       -0.01200
C         -2.74300        0.95300        0.01200
C         -0.29800        1.32300        0.00600
S         -2.40100       -2.19500        0.07700
O         -1.86600       -3.52600        0.06500
O         -3.27100       -1.74600        1.16700
N         -3.38100       -2.13400       -1.29600
C         -3.00500       -2.41800       -2.58000
C         -4.09200       -2.02700       -3.33700
N         -5.14400       -1.64900       -2.53500
C         -4.70100       -1.77600       -1.30100
H          3.13900        1.41200       -0.02100
H          2.14900        2.47200        0.98300
H          2.11600        2.61700       -0.80300
H          2.37400       -0.73100       -0.09100
H          1.93100       -2.84000       -0.31200
H          0.38500       -3.40700       -0.88000
H          0.73800       -3.24500        0.90500
H         -3.54300        0.22100       -0.00200
H         -2.89500        1.58000       -0.87000
H         -2.88800        1.55300        0.91300
H         -0.53600        2.38500        0.04700
H         -2.02300       -2.77900       -2.83800
H         -4.16700       -1.97400       -4.41500
H         -5.27900       -1.58800       -0.40200
