49
50257-40-4.pdb
C          3.65000       -0.89900       -0.51100
C          2.50700       -0.09400        0.11100
C          1.20500       -0.90000        0.10800
C          2.86800        0.40600        1.50100
C          2.97100        1.77400        1.73600
C          3.23900        2.31900        3.01400
C          3.26900        3.84900        3.09700
C          4.69200        4.35100        2.84600
C          2.30800        4.59800        2.15000
C          3.47800        1.41400        4.10300
C          3.38500       -0.00100        3.88100
C          3.07500       -0.45800        2.57400
C          3.49000       -1.08700        4.96200
C          2.09400       -1.54700        5.40400
C          4.31000       -2.32200        4.53900
S          3.76200        2.03000        5.79100
O          3.89000        3.47600        5.82600
O          2.83300        1.35700        6.67300
N          5.30200        1.53000        6.26000
C          6.48000        1.92100        5.68700
C          7.44600        1.48400        6.56500
N          6.87600        0.89200        7.66700
C          5.57600        0.99800        7.48400
H          3.38900       -1.21900       -1.52600
H          3.88600       -1.79500        0.07200
H          4.56100       -0.29300       -0.57600
H          2.33800        0.77400       -0.54000
H          1.30100       -1.83900        0.66400
H          0.91200       -1.15100       -0.91800
H          0.38700       -0.32600        0.55700
H          2.81400        2.43600        0.88700
H          2.91100        4.16300        4.07400
H          4.97400        4.23700        1.79200
H          5.43000        3.80300        3.43500
H          4.78100        5.41200        3.10300
H          2.62500        4.55100        1.10300
H          2.27500        5.66100        2.41900
H          1.29000        4.20200        2.22400
H          2.96000       -1.52400        2.38700
H          4.01300       -0.70000        5.83500
H          1.49200       -1.89300        4.55700
H          1.54100       -0.73800        5.88900
H          2.16500       -2.37400        6.12000
H          3.82200       -2.90300        3.74900
H          4.43600       -3.00400        5.38900
H          5.30600       -2.03700        4.18700
H          6.53800        2.48500        4.76900
H          8.52100        1.59400        6.48200
H          4.81100        0.71500        8.19700
