42
50262-46-9.pdb
C          1.02700        0.07900       -0.08200
C          2.54500        0.07500       -0.06400
C          3.07400       -1.26400        0.43300
C          4.59700       -1.27700        0.44900
C          5.11200       -2.62400        0.94300
C          6.63000       -2.63400        0.95600
C          7.17000       -3.97000        1.46200
C          8.69600       -3.99200        1.48700
C          9.26100       -2.91300        2.40300
O         10.68200       -2.99800        2.38800
C         11.33200       -2.10800        3.19700
C         10.73200       -1.11600        3.97800
C         11.51300       -0.29500        4.79100
C         12.89900       -0.46700        4.82500
C         13.72800        0.41400        5.66900
O         13.24600        1.30700        6.34800
C         13.50500       -1.45800        4.05200
C         12.72000       -2.26200        3.22500
H          0.65400        1.04200       -0.44000
H          0.62700       -0.09400        0.92200
H          0.64500       -0.70500       -0.74400
H          2.90500        0.88300        0.58300
H          2.92300        0.27500       -1.07400
H          2.70900       -2.07100       -0.21400
H          2.69500       -1.46200        1.44200
H          4.96800       -0.47400        1.09900
H          4.98300       -1.08000       -0.55900
H          4.74200       -3.42800        0.29900
H          4.73600       -2.81400        1.95600
H          6.96400       -1.81200        1.60200
H          7.02200       -2.43400       -0.04800
H          6.80900       -4.78000        0.81700
H          6.78400       -4.16900        2.46900
H          9.09500       -3.86400        0.47400
H          9.04300       -4.97600        1.82400
H          8.87600       -3.07000        3.41900
H          8.97000       -1.92300        2.04000
H          9.65800       -0.95300        3.98100
H         11.03900        0.47300        5.39900
H         14.81500        0.22900        5.64900
H         14.57900       -1.61900        4.08400
H         13.18600       -3.02100        2.60100
