11
503-87-7.pdb
O          2.68600       -0.71300       -0.03300
C          1.59200       -0.17100       -0.01900
C          1.33500        1.33000       -0.03100
N         -0.10700        1.34900        0.00200
C         -0.62800        0.07800        0.02000
S         -2.23400       -0.28600        0.05000
N          0.39000       -0.81400        0.00800
H          1.68700        1.78900       -0.95600
H          1.73000        1.81300        0.86400
H         -0.68800        2.18000        0.00600
H          0.28600       -1.81600        0.01800
