28
5031-78-7.pdb
C          1.15700       -0.46400        0.28500
C          2.47500        0.09500       -0.18400
O          2.97300       -0.26300       -1.25000
C          3.17700        1.09800        0.67100
C          2.62700        1.57600        1.86600
C          3.32300        2.51400        2.63600
C          4.59600        2.93800        2.24800
O          5.36200        3.84400        2.94400
C          5.34100        3.86500        4.32000
C          5.12900        2.75000        5.13500
C          5.11700        2.88900        6.52400
C          5.37100        4.13100        7.10500
C          5.64400        5.23400        6.29700
C          5.62900        5.10000        4.90700
C          5.12900        2.49400        1.03700
C          4.42500        1.57700        0.25100
H          0.81900       -1.22800       -0.42100
H          0.40200        0.32600        0.32000
H          1.27000       -0.94100        1.26400
H          1.65700        1.24100        2.22100
H          2.86300        2.89600        3.54400
H          4.96800        1.76500        4.70700
H          4.91700        2.02600        7.15400
H          5.36900        4.23700        8.18600
H          5.87000        6.19700        6.74700
H          5.84400        5.96200        4.28000
H          6.09700        2.86000        0.70200
H          4.85800        1.23700       -0.68800
