17
504-15-4.pdb
C         -1.31600       -2.66400        0.01100
C         -0.64800       -1.32100        0.00300
C          0.74900       -1.20300       -0.02300
C          1.33500        0.06200       -0.02500
O          2.69200        0.21500       -0.04200
C          0.55900        1.21600       -0.00900
C         -0.82500        1.09400        0.01500
O         -1.63500        2.19100        0.02900
C         -1.43100       -0.15900        0.02400
H         -0.58500       -3.47800       -0.02400
H         -1.97100       -2.76400       -0.86100
H         -1.91000       -2.78300        0.92300
H          1.36500       -2.09700       -0.04200
H          3.10200       -0.66500       -0.01600
H          1.04500        2.18500       -0.01200
H         -1.07600        2.98400       -0.00400
H         -2.51600       -0.22500        0.04500
