14
504-07-4.pdb
O          2.30100        0.91800        0.06200
C          1.24900        0.28700       -0.00000
C          1.20800       -1.17200       -0.37500
C         -0.02200       -1.81100        0.23000
N         -1.19200       -1.03600       -0.09400
C         -1.18900        0.32100        0.02100
O         -2.22500        0.97300       -0.02500
N          0.03600        0.90000        0.17600
H          2.11200       -1.67000       -0.01100
H          1.18500       -1.23600       -1.46900
H          0.05500       -1.85300        1.32300
H         -0.16700       -2.82600       -0.14900
H         -2.11100       -1.46200       -0.09700
H          0.04700        1.90100        0.30600
