13
504-63-2.pdb
O          2.74900       -0.89300       -1.06800
C          2.31700       -0.05500       -0.00600
C          2.84700        1.35200       -0.22000
C          4.37000        1.39300       -0.23000
O          4.81000        2.73400       -0.41400
H          2.38700       -1.78000       -0.89600
H          2.67500       -0.46900        0.94200
H          1.22300       -0.04600        0.00500
H          2.46700        2.02200        0.55900
H          2.48000        1.74900       -1.17500
H          4.79100        0.77900       -1.03400
H          4.77400        1.03400        0.72100
H          4.50400        3.01500       -1.29400
