14
505-23-7.pdb
C         -0.03600       -1.77700       -0.25600
C          1.24600       -1.18800        0.32100
S          1.50000        0.54300       -0.15700
C          0.01200        1.25600        0.57800
S         -1.49500        0.59700       -0.16800
C         -1.30600       -1.14600        0.30100
H         -0.05500       -2.84600       -0.01000
H         -0.02600       -1.72000       -1.35200
H          2.10400       -1.76200       -0.04400
H          1.25100       -1.26200        1.41400
H          0.03300        2.33600        0.40900
H          0.00600        1.09400        1.66000
H         -2.17700       -1.68700       -0.08600
H         -1.33600       -1.22900        1.39200
