16
505-10-2.pdb
C          1.16900        0.04200       -0.11300
S          2.96200       -0.11900        0.06800
C          3.47200        1.12400       -1.16500
C          4.99700        1.19400       -1.22500
C          5.46800        2.22000       -2.24800
O          5.00200        1.88500       -3.54700
H          0.67600       -0.65700        0.56800
H          0.86400       -0.19600       -1.13500
H          0.85000        1.05700        0.14000
H          3.05900        2.09700       -0.88100
H          3.06000        0.83700       -2.13700
H          5.39700        0.21000       -1.49900
H          5.40600        1.46100       -0.24400
H          6.56400        2.26000       -2.27500
H          5.10000        3.21700       -2.00000
H          5.33200        0.99300       -3.76000
