26
505-48-6.pdb
O          4.41000        2.34800       -1.75100
C          4.13800        1.33700       -0.89300
O          3.33200        1.45200        0.01600
C          4.93900        0.09500       -1.20200
C          4.61700       -1.05300       -0.24600
C          5.43400       -2.31500       -0.54000
C          6.95100       -2.15900       -0.37200
C          7.40400       -1.69500        1.01600
C          7.03100       -2.68600        2.11800
C          7.47800       -2.22200        3.48400
O          7.14700       -3.10800        4.45200
O          8.06800       -1.18200        3.72000
H          5.08200        2.12100       -2.42100
H          5.99700        0.36400       -1.13200
H          4.71200       -0.21300       -2.22800
H          3.55100       -1.30300       -0.32900
H          4.76700       -0.73600        0.79300
H          5.22900       -2.64200       -1.56800
H          5.07600       -3.12500        0.10500
H          7.33200       -1.45500       -1.12100
H          7.42600       -3.12200       -0.59900
H          6.99400       -0.70400        1.24000
H          8.49400       -1.56700        1.00000
H          7.50300       -3.65300        1.91300
H          5.94400       -2.81700        2.15900
H          6.66800       -3.89100        4.12300
