61
505-32-8.pdb
C          0.85400       -0.20400        0.18500
C          2.37500       -0.24700        0.19400
C          2.89300       -0.65700       -1.19100
C          2.93100        1.11500        0.65600
C          4.45400        1.12600        0.68900
C          5.02500        2.46500        1.14900
C          6.56500        2.44600        1.16100
C          7.15000        2.15200       -0.23000
C          7.08200        3.78200        1.71900
C          8.60500        3.82500        1.74100
C          9.12900        5.12900        2.31300
C         10.67100        5.15400        2.38700
C         11.31900        5.01100        1.00600
C         11.17000        6.44300        3.07300
C         10.66300        6.52000        4.51100
C         11.11500        7.76900        5.26200
C         10.54600        7.82100        6.69800
C          9.01000        7.85400        6.73100
O         10.98200        6.66300        7.41400
C         11.07800        9.05100        7.39800
C         11.82200        9.06200        8.51100
H          0.44000       -1.17700       -0.10000
H          0.48200        0.54300       -0.52300
H          0.46500        0.04500        1.18000
H          2.69600       -1.01300        0.91300
H          2.70000        0.12600       -1.93300
H          2.40800       -1.57700       -1.53000
H          3.96900       -0.85600       -1.17700
H          2.54600        1.34500        1.65800
H          2.57500        1.90900       -0.01100
H          4.81400        0.92300       -0.32100
H          4.82100        0.32500        1.34200
H          4.65300        2.68900        2.15500
H          4.66700        3.26600        0.49000
H          6.89300        1.64600        1.83800
H          6.88100        2.93800       -0.94400
H          6.80900        1.19300       -0.62900
H          8.23900        2.06700       -0.20400
H          6.69700        3.92200        2.73700
H          6.69900        4.61500        1.11800
H          8.98100        3.72900        0.72200
H          8.98800        2.98100        2.32700
H          8.68800        5.23000        3.30500
H          8.76900        5.97500        1.71500
H         10.99900        4.29700        2.99100
H         10.99900        5.81200        0.33200
H         11.07000        4.05300        0.54000
H         12.41000        5.04300        1.08400
H         10.83600        7.32200        2.50600
H         12.26700        6.45700        3.07300
H         10.98800        5.62000        5.04300
H          9.57300        6.52400        4.50400
H         10.80500        8.66100        4.70100
H         12.21200        7.77200        5.29500
H          8.57500        6.91900        6.36400
H          8.60700        8.68000        6.13600
H          8.64300        7.95700        7.75900
H         10.45900        5.90400        7.10600
H         10.82300       10.01100        6.94400
H         12.10600        8.13800        9.00800
H         12.16400        9.99100        8.95000
