28
50551-58-1.pdb
C          1.51800       -1.13000       -0.18000
C          2.46600       -0.05100       -0.67600
O          3.35300       -0.65300       -1.62600
C          4.45300       -1.24200       -1.07900
O          4.88900       -0.99400        0.04200
C          4.94100       -2.29900       -1.92700
O          4.42400       -2.51400       -3.17800
C          5.00900       -3.64900       -3.67600
C          4.75600       -4.24000       -4.92300
O          3.86500       -3.64300       -5.77200
C          3.69200       -4.25000       -7.04700
C          5.46100       -5.42700       -5.18300
C          6.35700       -5.97200       -4.25700
C          6.59300       -5.34700       -3.03100
C          5.90600       -4.15900       -2.74100
C          5.87800       -3.27300       -1.64000
H          0.79200       -0.72800        0.52900
H          2.07200       -1.94200        0.30400
H          0.98300       -1.57900       -1.02500
H          3.00400        0.42100        0.15500
H          1.90600        0.73800       -1.18900
H          3.00800       -3.62700       -7.63100
H          3.23800       -5.24200       -6.95000
H          4.63900       -4.30300       -7.59700
H          5.32600       -5.96600       -6.11700
H          6.87900       -6.89700       -4.49400
H          7.28800       -5.77600       -2.31500
H          6.43000       -3.35200       -0.71400
