53
506-12-7.pdb
C          0.95000       -0.00000       -0.11300
C          2.46600       -0.00900       -0.11200
C          2.99000       -1.42900        0.05100
C          4.51000       -1.43900        0.05400
C          5.02300       -2.86000        0.21500
C          6.54200       -2.86700        0.21600
C          7.05300       -4.28600        0.37500
C          8.57000       -4.29200        0.37800
C          9.08000       -5.71200        0.53500
C         10.59700       -5.71700        0.53500
C         11.11000       -7.13600        0.69000
C         12.62800       -7.13800        0.69000
C         13.14500       -8.55600        0.84500
C         14.66700       -8.57000        0.84700
C         15.17300      -10.00300        1.00300
C         16.70500      -10.06100        1.00900
C         17.21500      -11.46800        1.16300
O         18.56500      -11.58300        1.17700
O         16.51100      -12.44800        1.26800
H          0.57700        1.02000       -0.23000
H          0.56000       -0.40500        0.82700
H          0.56000       -0.60800       -0.93600
H          2.83700        0.62200        0.70500
H          2.83700        0.42000       -1.05000
H          2.61800       -2.06000       -0.76500
H          2.61600       -1.86000        0.98800
H          4.88700       -0.81300        0.87300
H          4.88900       -1.01100       -0.88200
H          4.64900       -3.48800       -0.60200
H          4.64900       -3.28900        1.15300
H          6.91800       -2.24100        1.03500
H          6.91800       -2.43700       -0.72000
H          6.67900       -4.91300       -0.44400
H          6.67600       -4.71700        1.31100
H          8.94500       -3.66700        1.19800
H          8.94700       -3.86000       -0.55700
H          8.70500       -6.33700       -0.28500
H          8.70500       -6.14300        1.47100
H         10.97300       -5.09200        1.35600
H         10.97300       -5.28400       -0.40000
H         10.73400       -7.76100       -0.13000
H         10.73400       -7.56900        1.62600
H         13.00200       -6.51300        1.51100
H         13.00200       -6.70500       -0.24500
H         12.76700       -9.18000        0.02600
H         12.76700       -8.98900        1.78000
H         15.04300       -7.94500        1.66700
H         15.04300       -8.13700       -0.09000
H         14.76200      -10.61000        0.18100
H         14.76200      -10.41800        1.93600
H         17.07100       -9.46000        1.84700
H         17.07100       -9.65500        0.06100
H         19.08500      -10.76300        1.08900
