62
506-30-9.pdb
C          0.95700       -0.03400        0.10800
C          2.47300       -0.03600        0.10000
C          2.99700       -1.04500       -0.91200
C          4.51700       -1.05100       -0.92100
C          5.03000       -2.06200       -1.93300
C          6.54800       -2.06700       -1.93800
C          7.06000       -3.07600       -2.95000
C          8.57800       -3.07800       -2.95500
C          9.08700       -4.08500       -3.96800
C         10.60400       -4.08900       -3.97300
C         11.11500       -5.09800       -4.98400
C         12.63200       -5.10100       -4.98800
C         13.14200       -6.11000       -6.00000
C         14.65900       -6.11400       -6.00400
C         15.16700       -7.12400       -7.01800
C         16.68500       -7.13200       -7.02500
C         17.20500       -8.14300       -8.03900
C         18.73000       -8.14000       -8.03600
C         19.30300       -9.14200       -9.04200
C         20.81600       -9.15400       -9.05400
O         21.36700      -10.02600       -9.92900
O         21.50500       -8.45100       -8.34900
H          0.58200        0.69100        0.83500
H          0.57000       -1.02200        0.37400
H          0.56500        0.23300       -0.87900
H          2.84600       -0.28300        1.10000
H          2.84100        0.96600       -0.14700
H          2.62300       -0.79800       -1.91400
H          2.62600       -2.04800       -0.66700
H          4.89600       -1.30000        0.07700
H          4.89400       -0.05200       -1.17200
H          4.65500       -1.81400       -2.93400
H          4.65500       -3.06300       -1.68600
H          6.92500       -2.31800       -0.93900
H          6.92500       -1.06700       -2.18600
H          6.68400       -2.82700       -3.95000
H          6.68700       -4.07700       -2.70300
H          8.95500       -3.32800       -1.95600
H          8.95200       -2.07600       -3.20100
H          8.71200       -3.83300       -4.96800
H          8.71200       -5.08600       -3.72300
H         10.97900       -4.34000       -2.97300
H         10.97900       -3.08900       -4.22000
H         10.73900       -4.84700       -5.98400
H         10.73900       -6.09800       -4.73700
H         13.00800       -5.35100       -3.98800
H         13.00800       -4.10100       -5.23500
H         12.76600       -5.85900       -6.99900
H         12.76600       -7.11000       -5.75300
H         15.03500       -6.36400       -5.00500
H         15.03500       -5.11400       -6.25100
H         14.79100       -6.87200       -8.01600
H         14.79100       -8.12300       -6.76900
H         17.05900       -7.37900       -6.02400
H         17.05900       -6.13000       -7.27000
H         16.82800       -7.89100       -9.03900
H         16.82800       -9.14300       -7.79100
H         19.07900       -8.37200       -7.01800
H         19.07900       -7.12100       -8.26600
H         18.94700       -8.87300      -10.04200
H         18.94700      -10.14300       -8.77700
H         20.76100      -10.56500      -10.47000
