14
506-87-6.pdb
N          1.00100        1.76800        0.62900
N         -0.50700       -1.24800        0.36400
O          2.03100       -0.66500       -1.02000
C          3.22800       -0.67100       -0.41500
O          4.13500       -1.23700       -1.21900
O          3.44400       -0.23400        0.69600
H          1.92700        1.55000        1.01300
H          0.34900        1.28200        1.24800
H          0.97300        1.24200       -0.24500
H          0.44900       -0.97200        0.60000
H         -0.45200       -2.22300        0.07800
H         -0.74400       -0.71100       -0.46900
H          1.96600       -1.34200       -1.71400
H          3.89100       -1.19500       -2.15800
