51
506-13-8.pdb
O          1.02700        0.06400       -0.06800
C          2.44500        0.04900       -0.04900
C          2.95900        1.10600       -1.00800
C          4.47900        1.12500       -1.01700
C          4.99400        2.18600       -1.97600
C          6.51300        2.19400       -1.97800
C          7.02600        3.25500       -2.93500
C          8.54400        3.26100       -2.93800
C          9.05500        4.32300       -3.89300
C         10.57200        4.32700       -3.89700
C         11.08500        5.39000       -4.85100
C         12.60300        5.39200       -4.85200
C         13.12000        6.45400       -5.80500
C         14.64300        6.46500       -5.81400
C         15.14800        7.53600       -6.77600
C         16.67800        7.58600       -6.82000
C         17.19800        8.64300       -7.76800
O         18.54700        8.72300       -7.84200
O         16.48900        9.37400       -8.42200
H          0.73100       -0.62200        0.55400
H          2.79200       -0.94500       -0.34900
H          2.78700        0.25400        0.97000
H          2.56700        2.09000       -0.72200
H          2.57400        0.91200       -2.01700
H          4.86200        0.14100       -1.31400
H          4.85500        1.32700       -0.00700
H          4.61800        3.17300       -1.68000
H          4.62300        1.98700       -2.98900
H          6.89300        1.20900       -2.27700
H          6.88800        2.39300       -0.96700
H          6.65000        4.24100       -2.63700
H          6.65300        3.05800       -3.94800
H          8.92100        2.27500       -3.23800
H          8.91900        3.45700       -1.92600
H          8.68000        5.30900       -3.59200
H          8.68000        4.12700       -4.90500
H         10.94800        3.34100       -4.19900
H         10.94800        4.52100       -2.88500
H         10.70900        6.37500       -4.54800
H         10.70900        5.19600       -5.86300
H         12.97700        4.40600       -5.15500
H         12.97700        5.58600       -3.84000
H         12.74100        7.43900       -5.50300
H         12.74100        6.26100       -6.81700
H         15.01800        5.47800       -6.11700
H         15.01800        6.65900       -4.80100
H         14.74000        8.51000       -6.46200
H         14.74000        7.33000       -7.77800
H         17.04900        6.60900       -7.14700
H         17.04900        7.80500       -5.81300
H         19.07100        8.11300       -7.29700
