32
5072-26-4.pdb
C          4.89800        0.32000        3.02600
C          4.51100        0.12300        1.56800
C          4.93000        1.33200        0.74400
C          4.57600        1.19600       -0.73100
S          5.08800        2.65600       -1.64100
N          4.68600        2.43600       -3.11300
O          4.69200        3.81400       -0.86400
C          6.88300        2.58300       -1.59900
C          7.47000        3.78800       -2.34400
C          9.01200        3.83500       -2.37600
N          9.58700        2.64700       -3.05000
C          9.55400        5.12600       -3.08000
O         10.74700        4.99900       -3.66300
O          8.96800        6.20000       -3.02400
H          4.60000       -0.54700        3.62200
H          4.40900        1.20700        3.44300
H          5.98100        0.45000        3.12900
H          3.42800       -0.02300        1.49500
H          4.99400       -0.78100        1.18100
H          6.01000        1.47700        0.84900
H          4.45500        2.23100        1.15600
H          3.49300        1.09000       -0.86500
H          5.07000        0.33100       -1.18500
H          3.68100        2.54700       -3.23800
H          7.16800        1.62900       -2.05200
H          7.19800        2.58400       -0.55100
H          7.08800        4.69900       -1.86300
H          7.07700        3.80300       -3.36600
H          9.37200        3.86000       -1.34000
H          9.19100        2.59200       -3.99500
H          9.27100        1.79700       -2.58900
H         11.12200        4.08500       -3.60800
