21
5081-36-7.pdb
C          1.06000       -0.18000       -0.12900
O          2.42200        0.14800        0.12500
C          3.15200       -0.73500        0.87100
C          2.83200       -2.08800        1.02800
C          3.67900       -2.95100        1.74800
C          4.86300       -2.46600        2.31900
C          5.19500       -1.11700        2.17500
C          4.33000       -0.27000        1.46500
N          4.65900        1.14300        1.41300
O          3.87900        1.93200        1.96100
O          5.74100        1.44300        0.88900
C          3.23100       -4.36000        1.91700
O          4.22700       -5.25800        2.02100
O          2.05000       -4.66600        1.92600
H          0.62600        0.63600       -0.71500
H          0.50200       -0.26000        0.80900
H          0.96700       -1.09200       -0.72700
H          1.92700       -2.50700        0.59600
H          5.51200       -3.10400        2.91300
H          6.10300       -0.72600        2.63200
H          5.12200       -4.93300        1.82200
