15
51-17-2.pdb
N         -1.50200       -1.11000       -0.00600
C         -2.28300        0.01000       -0.00100
N         -1.56000        1.10700        0.00400
C         -0.25500        0.67700        0.00100
C          0.93400        1.42000       -0.00300
C          2.15500        0.73200       -0.01100
C          2.19000       -0.66500       -0.00500
C          1.01200       -1.42300        0.00300
C         -0.18900       -0.71300        0.00100
H         -1.83200       -2.06400       -0.01800
H         -3.36300       -0.03600       -0.00300
H          0.89900        2.50300       -0.00500
H          3.08500        1.29500       -0.02100
H          3.15100       -1.17400       -0.00800
H          1.04100       -2.50700        0.00800
