19
5100-34-5.pdb
C          2.48800        0.56400        2.11300
C          2.51100        0.00600        0.70000
O          3.03800       -1.32700        0.76700
C          4.39500       -1.40900        0.70600
O          5.14100       -0.52500        0.30800
C          4.85600       -2.71800        1.28400
C          6.18900       -2.49900        1.99300
N          6.59900       -3.75600        2.63400
C          7.62700       -3.67900        3.19300
O          8.65800       -3.58300        3.75100
H          2.08900        1.58000        2.13400
H          3.49500        0.57000        2.54500
H          1.87700       -0.07400        2.76100
H          3.08900        0.64600        0.02500
H          1.49300       -0.05700        0.30200
H          4.93600       -3.46300        0.48700
H          4.11700       -3.07000        2.01400
H          6.07900       -1.70300        2.74300
H          6.94600       -2.17000        1.26800
