83
51022-70-9.pdb
C          2.11700        2.04200        0.57500
C          3.32100        1.04600        0.32400
C          3.50900       -0.21200        1.22900
C          3.48700        0.56000       -1.13900
N          4.46000        1.89900        0.68100
C          4.32900        2.32700        2.08700
C          4.68400        3.79400        2.31800
O          4.32200        4.60300        1.19400
C          3.98800        4.23100        3.59300
C          2.81100        4.98800        3.61400
C          2.24200        5.36900        4.82800
C          2.83300        4.97200        6.02700
O          2.33000        5.44300        7.20700
C          3.94000        4.12000        6.04500
C          4.59600        3.55300        7.28400
O          4.11500        4.03700        8.52700
C          4.49900        3.75400        4.81200
C         -1.37400       -0.34800       -0.33700
C          0.15300       -0.18100       -0.35000
C          0.35700       -0.00700        1.23000
C          0.70600       -1.64200       -0.61900
N          0.37500        0.73000       -1.61700
C          0.87500        2.16700       -2.02200
C          0.08000        3.58200       -1.99600
O         -0.72500        3.57300       -0.80900
C          0.67600        5.05600       -2.08900
C         -0.24700        6.11500       -1.79500
C          0.05700        7.48300       -1.87700
C          1.32100        7.91500       -2.25500
O          1.60300        9.25600       -2.30900
C          2.29300        6.96500       -2.57400
C          3.68800        7.39500       -3.05200
O          4.06900        8.76400       -2.86900
C          1.95100        5.53700       -2.50300
O          4.68200       -2.67300       -0.45100
S          6.23200       -2.32700       -0.88500
O          6.03100       -2.51900       -2.45500
O          6.45700       -0.93400       -0.59600
O          7.03900       -3.41500       -0.41600
H          1.17600        1.79500        0.13400
H          2.32900        3.04400        0.19200
H          1.78600        2.17500        1.60300
H          2.91300       -1.07800        0.93600
H          3.30100       -0.03600        2.28900
H          4.55100       -0.55300        1.18500
H          2.79600       -0.24300       -1.40100
H          4.47400        0.13700       -1.31500
H          3.39000        1.32000       -1.91000
H          4.48200        2.72100        0.07300
H          4.88300        1.64700        2.73800
H          3.31700        2.21300        2.48300
H          5.76900        3.86500        2.42100
H          3.36100        4.55900        1.08600
H          2.31600        5.30100        2.69800
H          1.34500        5.98100        4.81900
H          1.72100        6.17500        7.00500
H          5.66700        3.77800        7.24700
H          4.47700        2.46300        7.28500
H          3.43200        4.70500        8.32200
H          5.35300        3.07500        4.79800
H         -1.68200       -1.03300        0.46900
H         -1.74300       -0.76600       -1.27100
H         -1.84400        0.62000       -0.13500
H          0.16100       -0.95700        1.76000
H         -0.31100        0.73500        1.67500
H          1.33900        0.19900        1.61400
H          0.37700       -2.34400        0.16500
H          1.79300       -1.73900       -0.62000
H          0.34500       -2.05500       -1.56400
H          0.71600        0.10900       -2.35300
H          1.09800        2.04200       -3.09600
H          1.87400        2.39900       -1.67200
H         -0.60500        3.53700       -2.85300
H         -0.12600        3.79300       -0.07800
H         -1.27800        5.85800       -1.54600
H         -0.71300        8.21500       -1.65400
H          0.85300        9.77900       -1.97300
H          3.77500        7.20200       -4.12700
H          4.44400        6.81100       -2.52400
H          3.25600        9.27500       -2.68600
H          2.72500        4.83500       -2.80000
H          4.16900       -1.84300       -0.63500
H          5.55100       -3.35500       -2.64200
