31
51069-11-5.pdb
C          0.80200        1.36600       -0.28700
C         -0.73000        1.40700       -0.27000
C         -1.30500       -0.00200        0.03600
C         -0.68300       -0.43400        1.39400
C          0.84900       -0.41000        1.31700
N          1.32100        0.01500       -0.01100
C          0.80100       -0.92400       -1.02300
C         -0.73500       -0.96600       -1.03700
C         -2.83700       -0.02800        0.01100
C         -3.55600        0.83800       -0.82700
C         -4.94800        0.78600       -0.92400
C         -5.65700       -0.14900       -0.17900
C         -4.97700       -1.01000        0.67000
C         -3.58100       -0.95000        0.77100
H          1.19700        2.07700        0.44600
H          1.17200        1.71400       -1.26000
H         -1.06300        1.77300       -1.24600
H         -1.08200        2.13000        0.47600
H         -0.99500       -1.45100        1.66300
H         -1.01900        0.23300        2.19800
H          1.25200       -1.40300        1.55400
H          1.25300        0.25700        2.08900
H          1.20000       -1.93000       -0.83400
H          1.17700       -0.64400       -2.01400
H         -1.07800       -1.99200       -0.85000
H         -1.09100       -0.69200       -2.03900
H         -3.05000        1.57800       -1.44400
H         -5.46900        1.46700       -1.58800
H         -6.73800       -0.20600       -0.26700
H         -5.52700       -1.74300        1.25700
H         -3.10000       -1.64900        1.44600
