18
51076-46-1.pdb
O          0.90000        0.07200        0.17600
C          2.12200        0.02100        0.07300
C          2.92600        1.13900       -0.50500
C          2.10400        2.27100       -1.05000
O          2.47000        3.08400       -1.88800
C          4.28300        1.09500       -0.55700
C          5.08500        2.20300       -1.13600
C          6.38300        1.99100       -1.41200
N          7.00800        0.80200       -1.11700
C          6.37300       -0.14600       -0.35100
C          5.07300       -0.04800       -0.02100
H          2.65900       -0.87700        0.40000
H          1.07700        2.32500       -0.64800
H          4.65300        3.17500       -1.34400
H          7.01600        2.75200       -1.85700
H          8.01200        0.74000       -1.24400
H          7.00800       -0.95800       -0.00800
H          4.65200       -0.79300        0.63800
