21
5108-96-3.pdb
N          0.28100        0.32700        0.97500
S          2.20200       -0.00400       -2.05700
C          3.36800       -0.04400       -0.74100
S          3.79300        1.39000        0.02300
N          3.84200       -1.30000       -0.39100
C          3.41600       -2.57200       -0.97400
C          3.89600       -3.62500        0.01200
C          5.17600       -3.01500        0.55900
C          4.83600       -1.53500        0.65600
H          1.25700        0.59700        1.11800
H         -0.20700        0.64000        1.81400
H          0.26400       -0.69000        1.00200
H          1.37800        0.87700       -1.46600
H          3.91800       -2.67900       -1.94300
H          2.33300       -2.62000       -1.11500
H          4.05200       -4.60200       -0.45400
H          3.16500       -3.74100        0.82100
H          5.99600       -3.16600       -0.15300
H          5.47600       -3.44100        1.52100
H          5.71800       -0.90400        0.50900
H          4.37800       -1.29900        1.62300
