22
5111-70-6.pdb
C          1.34900        0.82200        0.12400
O          2.42100       -0.10800        0.03000
C          3.03000       -0.22700       -1.19100
C          2.64800        0.45400       -2.36200
C          3.34500        0.25900       -3.55800
C          4.41100       -0.61900       -3.54200
C          5.29800       -0.99000       -4.63500
O          5.20300       -0.55700       -5.76900
C          6.33000       -1.96800       -4.13200
C          5.98100       -2.19700       -2.65100
C          4.80700       -1.30600       -2.40300
C          4.11500       -1.11600       -1.21500
H          0.99000        0.81800        1.15700
H          0.51400        0.52600       -0.52000
H          1.68600        1.83800       -0.10800
H          1.81000        1.14300       -2.37200
H          3.06400        0.77800       -4.46900
H          7.32900       -1.53500       -4.23800
H          6.26700       -2.90100       -4.69900
H          6.82500       -1.92500       -2.00800
H          5.72000       -3.24500       -2.47300
H          4.40600       -1.64300       -0.31100
