32
51135-96-7.pdb
O          1.53200       -0.18700       -0.83800
C          0.99700       -0.06400        0.48300
C          0.15800        1.22200        0.53700
C         -1.02100        1.16900       -0.42700
N         -1.82800       -0.05900       -0.18000
C         -1.04100       -1.32100       -0.32200
C          0.09900       -1.29900        0.68000
C          2.11400       -0.10000        1.56300
C          3.13500        1.01500        1.53200
C          3.19500        1.95500        2.57300
C          4.17800        2.95100        2.57100
C          5.10200        3.02300        1.53100
C          5.05500        2.08800        0.50100
C          4.09200        1.08000        0.50900
H          2.08700        0.59500       -1.03000
H          0.77200        2.08900        0.26500
H         -0.20800        1.38700        1.55700
H         -0.70500        1.14800       -1.47600
H         -1.69000        2.02200       -0.27800
H         -2.60900       -0.08600       -0.85000
H         -2.26300       -0.02100        0.75200
H         -0.69900       -1.38100       -1.36100
H         -1.72900       -2.15000       -0.12700
H          0.68600       -2.21700        0.54800
H         -0.30600       -1.31500        1.70000
H          2.67100       -1.04400        1.48700
H          1.63900       -0.11100        2.55400
H          2.50800        1.90900        3.41400
H          4.23900        3.66000        3.39300
H          5.87200        3.79100        1.53600
H          5.79400        2.12700       -0.29800
H          4.12100        0.32900       -0.27500
