30
51207-98-8.pdb
C          3.47900        3.67500       -1.31100
C          3.58700        2.25100       -1.83400
C          4.52900        1.40500       -0.97500
C          4.62900       -0.04000       -1.46700
N          5.18400       -0.13400       -2.80300
C          6.54400       -0.18600       -3.01600
O          7.36800       -0.21800       -2.10800
C          7.01000       -0.22400       -4.42900
C          6.29300        0.37800       -5.47300
C          6.80200        0.35800       -6.77800
C          8.03500       -0.26100       -7.03500
C          8.75900       -0.86000       -5.99700
C          8.24400       -0.83700       -4.69800
N          8.57700       -0.27000       -8.40000
O          7.89700        0.25700       -9.29200
O          9.67900       -0.80600       -8.58000
H          2.80500        4.26000       -1.94600
H          4.45600        4.16700       -1.30900
H          3.08200        3.69000       -0.29100
H          3.94500        2.28300       -2.86900
H          2.58900        1.79600       -1.85000
H          4.16500        1.39700        0.06000
H          5.52500        1.86400       -0.96200
H          3.64000       -0.51000       -1.48800
H          5.25900       -0.61500       -0.77900
H          4.54000       -0.19300       -3.58000
H          5.35800        0.90000       -5.28500
H          6.23900        0.84100       -7.57400
H          9.72100       -1.33600       -6.17600
H          8.81100       -1.29300       -3.88800
