17
51285-26-8.pdb
N          1.21300       -0.40700       -0.53900
C          2.33400        0.03900       -0.00700
N          2.81800        1.21300       -0.36300
C          3.11400       -0.72700        1.00600
C          2.74500       -1.97600        1.49700
C          3.56500       -2.58600        2.44400
C          4.72000       -1.94200        2.87200
C          5.01700       -0.70200        2.33500
N          4.24300       -0.08000        1.41400
H          0.70300        0.13200       -1.22600
H          0.82100       -1.30400       -0.28100
H          2.39400        1.83300       -1.03500
H          3.69100        1.48700        0.09400
H          1.84900       -2.49200        1.17400
H          3.30700       -3.56300        2.85000
H          5.37300       -2.39900        3.60900
H          5.91200       -0.16500        2.64200
