14
513-86-0.pdb
C          1.03200        0.01500       -0.16000
C          2.54900        0.02100       -0.08600
O          2.98300        1.34900        0.20000
C          3.02900       -0.93500        1.00600
C          3.29200       -2.36500        0.62200
O          3.20000       -0.53900        2.16300
H          0.68300        0.72000       -0.92200
H          0.59200        0.33300        0.79300
H          0.64500       -0.98100       -0.39700
H          2.99000       -0.26900       -1.04400
H          2.91200        1.45300        1.17000
H          2.99700       -2.54800       -0.41400
H          2.71400       -3.02700        1.27000
H          4.36200       -2.57300        0.72500
