52
514-10-3.pdb
C          2.74800        5.57000        2.91300
C          1.52700        6.52200        2.83500
C          1.98300        7.96700        3.04600
C          0.75900        6.31100        1.53300
C         -0.53200        5.88400        1.44600
C         -0.87200        4.94800        0.34500
C         -2.07300        4.65900       -0.19400
C         -2.31400        3.44000       -1.11600
C         -1.33700        2.27700       -0.76900
C          0.12300        2.80200       -0.75300
C          0.55200        3.02300       -2.22200
C          0.88800        1.74900        0.08500
C          1.15900        0.49000       -0.65900
C         -0.02100        0.04100       -1.50400
C         -1.43000        0.78300       -1.42600
C         -1.99500        0.57800       -2.87400
C         -2.50600        0.09500       -0.54900
O         -2.08700       -0.86400        0.30100
O         -3.67700        0.43600       -0.57700
C          0.33700        4.10200        0.06200
C          1.55900        4.95000       -0.38400
C          1.57400        6.32700        0.26600
H          3.10400        5.47500        3.94500
H          2.51000        4.56200        2.55300
H          3.59500        5.93500        2.31700
H          0.87000        6.24200        3.66700
H          1.62900        8.63900        2.25900
H          3.07500        8.05500        3.09500
H          1.59700        8.34000        4.00100
H         -1.18900        5.86400        2.31000
H         -2.95000        5.24200        0.08200
H         -3.34800        3.10900       -0.96000
H         -2.23300        3.76200       -2.15900
H         -1.59600        2.10100        0.29000
H          0.20800        4.00400       -2.57900
H          1.63500        2.96500       -2.34400
H          0.10200        2.32100       -2.92400
H          0.29000        1.48600        0.97500
H          1.82800        2.13700        0.49400
H          2.02700        0.67700       -1.30600
H          1.47700       -0.29200        0.03700
H          0.37600        0.16000       -2.52200
H         -0.13600       -1.04400       -1.40500
H         -2.10100        1.49800       -3.44600
H         -2.94300        0.02600       -2.89300
H         -1.34400       -0.08500       -3.46900
H         -1.14400       -1.04600        0.30000
H          0.59900        3.75800        1.07700
H          1.61200        5.11100       -1.46400
H          2.47200        4.40500       -0.11000
H          1.12800        7.06200       -0.41800
H          2.60400        6.66300        0.41500
