18
51451-44-6.pdb
N          3.27800       -0.90900       -2.77500
C          2.71200       -1.37900       -1.62900
S          1.33500       -2.31800       -1.72500
C          3.29400       -0.94500       -0.29500
C          4.79500       -0.81100       -0.27000
C          5.42100        0.42800       -0.44000
C          6.80900        0.51100       -0.38900
C          7.52900       -0.65200       -0.17400
N          6.96000       -1.86700       -0.02500
C          5.61100       -1.92100       -0.07600
H          2.89700       -1.20600       -3.66600
H          4.17600       -0.43900       -2.79000
H          3.00000       -1.65200        0.49200
H          2.83500        0.01300       -0.02500
H          4.83500        1.32900       -0.60200
H          7.31900        1.46100       -0.50600
H          8.61300       -0.63700       -0.11100
H          5.19200       -2.91600        0.05800
