28
51486-16-9.pdb
C          0.86600        0.07100        0.03400
C          2.35900       -0.00600        0.04600
S          3.12400       -1.54300        0.05100
C          4.63200       -0.82000        0.06700
N          5.73600       -1.61000        0.07300
C          6.98700       -1.04500        0.07100
S          8.27500       -2.12300        0.06900
N          7.05600        0.36200        0.05800
C          8.34400        1.05200       -0.04600
C          8.95400        1.41800        1.28400
C          8.50500        1.16800        2.52200
C          5.92500        1.21700        0.05900
O          6.00500        2.44300        0.03500
C          4.63600        0.53900        0.06400
C          3.28000        1.04300        0.05100
C          2.87800        2.48600        0.04100
H          0.39700       -0.91900        0.03400
H          0.52000        0.60300       -0.85800
H          0.50900        0.60900        0.91800
H          5.63700       -2.61800        0.06500
H          8.22100        1.97100       -0.63000
H          9.06100        0.44300       -0.60500
H          9.89000        1.96800        1.19700
H          7.58500        0.63000        2.71800
H          9.07000        1.51200        3.38500
H          3.72900        3.16800        0.03400
H          2.27700        2.71500        0.92700
H          2.27500        2.70200       -0.84800
