21
5150-42-5.pdb
C          0.94000        0.10500        0.12200
O          2.35600        0.01000        0.10200
C          3.10100        1.15800        0.09000
C          2.51900        2.43800        0.09200
C          3.30800        3.59100        0.07200
C          4.69400        3.48600        0.05100
C          5.28000        2.22300        0.05200
O          6.65100        2.12500        0.03300
C          4.50700        1.04400        0.07300
O          5.25500       -0.10800        0.07400
C          4.60300       -1.36600        0.09100
H          0.54100       -0.91400        0.10800
H          0.56400        0.61800       -0.76900
H          0.59000        0.58600        1.04000
H          1.44300        2.57400        0.10900
H          2.83700        4.57000        0.07200
H          5.29600        4.38800        0.03500
H          7.03500        3.01500        0.01900
H          5.37700       -2.14000        0.10900
H          4.01600       -1.52100       -0.82100
H          4.00300       -1.49500        0.99700
