18
51517-88-5.pdb
O          0.98300        0.05300       -0.32600
C          2.18200        0.06900       -0.07400
C          2.94800       -1.18800        0.10400
C          4.23800       -1.15600        0.46500
C          4.92800        0.11300        0.70800
C          4.21700        1.35500        0.39700
C          2.92600        1.34600        0.04200
C          6.19700        0.13600        1.18400
N          6.95000        1.25700        1.48400
N          8.06900        0.70000        2.11400
N          8.01900       -0.68200        2.00400
N          6.90300       -1.01000        1.50400
H          2.41300       -2.11300       -0.07000
H          4.78400       -2.08900        0.58400
H          4.74800        2.30100        0.45100
H          2.37300        2.25000       -0.18200
H          6.42900        1.87600        2.10500
H          8.96800        1.06800        1.79900
