18
5153-67-3.pdb
O          1.22200       -0.21200        0.03200
N          2.44500       -0.07900       -0.08900
O          3.09800       -0.35600       -1.10200
C          3.13400        0.43500        1.07200
C          4.46200        0.60600        1.04400
C          5.23800        1.08800        2.19800
C          4.85800        0.82100        3.52100
C          5.64900        1.25000        4.59100
C          6.83400        1.94100        4.35000
C          7.22900        2.20300        3.04100
C          6.43800        1.77600        1.97100
H          2.45000        0.62200        1.88300
H          5.04100        0.39500        0.14600
H          3.95400        0.26100        3.74700
H          5.34400        1.03400        5.61100
H          7.45200        2.26600        5.18200
H          8.15800        2.73600        2.85100
H          6.77200        1.98900        0.95700
