21
51605-32-4.pdb
C          6.39200       -0.78500       -0.46800
C          5.28400        0.24800       -0.58100
O          5.19100        0.94100        0.66700
C          4.43000        0.33100        1.62200
O          3.60300       -0.54700        1.39200
C          4.79900        0.76100        2.97200
N          5.76800        1.72100        3.23500
C          5.88600        1.76300        4.53900
N          5.03000        0.89500        5.14800
C          4.32800        0.23900        4.16800
C          3.33300       -0.81900        4.45800
H          6.54600       -1.30800       -1.41400
H          6.16000       -1.52200        0.30900
H          7.33100       -0.30400       -0.17000
H          4.33200       -0.21100       -0.87100
H          5.53900        0.98500       -1.34900
H          6.57500        2.39000        5.09400
H          4.95400        0.74300        6.14500
H          3.21900       -0.98100        5.53500
H          3.64200       -1.76700        4.00700
H          2.35300       -0.54400        4.05300
