34
51661-19-9.pdb
O          6.94000        2.26000        1.90200
N          6.36900        1.36700        1.26300
O          6.93200        0.48700        0.59900
C          4.92300        1.30600        1.37400
C          4.38100        1.18500        2.66400
C          2.99800        1.18700        2.82700
C          2.17500        1.34100        1.71700
C          2.72700        1.44800        0.43600
C          4.11200        1.39100        0.23500
O          4.68900        1.45900       -1.00900
C          3.87000        0.97200       -2.08600
C          4.58000        1.11800       -3.42700
O          4.77500        2.51300       -3.68200
C          5.19800        2.88000       -4.92600
C          5.53400        1.97800       -5.94100
C          5.96600        2.44100       -7.19200
C          6.07400        3.80600       -7.44700
C          5.75400        4.72200       -6.44900
C          5.31800        4.24800       -5.20300
N          5.00200        5.23400       -4.18300
O          3.85400        5.23300       -3.71400
O          5.88700        6.05700       -3.91000
H          5.02600        1.09200        3.53500
H          2.55900        1.09100        3.81700
H          1.09400        1.39200        1.83700
H          2.03200        1.60500       -0.38200
H          2.95100        1.55700       -2.15600
H          3.63900       -0.08700       -1.91100
H          3.92300        0.68500       -4.19000
H          5.54700        0.60700       -3.41100
H          5.47900        0.90500       -5.79800
H          6.22700        1.72300       -7.96700
H          6.41500        4.15400       -8.41900
H          5.84500        5.78900       -6.63900
