15
51673-84-8.pdb
C          1.01400       -0.35200        0.17300
O          2.41600       -0.15100        0.04500
C          2.74700        1.23100       -0.12200
O          2.25200        2.03700        0.93400
C          2.91500        1.81400        2.17400
C          4.25400        1.30600       -0.43100
O          5.01500        2.20000       -0.07100
H          0.80900       -1.42000        0.06000
H          0.45700        0.19300       -0.59600
H          0.68000       -0.04500        1.16800
H          2.26200        1.57700       -1.04400
H          2.28900        2.22900        2.96700
H          3.87400        2.33400        2.19100
H          3.05800        0.74700        2.37000
H          4.62600        0.49400       -1.08100
