32
51674-10-3.pdb
C          2.82700        1.03300        0.72400
C          2.50800       -0.08900       -0.25200
N          3.02900       -1.38200        0.20500
C          2.07100       -2.33700        0.78500
C          1.06100       -1.78500        1.78300
C          4.35800       -1.68400       -0.18700
O          5.05200       -0.86000       -0.78400
C          4.96300       -3.02500        0.07600
C          4.21600       -4.15900       -0.30300
C          4.68800       -5.45500       -0.09500
C          5.95900       -5.64200        0.41800
C          6.75700       -4.53300        0.70100
C          6.27500       -3.22400        0.54200
O          7.26200       -2.30400        0.79000
C          6.92200       -1.08500        1.43100
H          2.40700        1.97800        0.36700
H          3.90800        1.16400        0.83800
H          2.41200        0.83000        1.71700
H          2.94400        0.15600       -1.22900
H          1.42700       -0.16400       -0.41600
H          2.60600       -3.14100        1.29500
H          1.52100       -2.77200       -0.05800
H          1.56300       -1.40400        2.67600
H          0.38200       -2.58900        2.09200
H          0.44300       -0.98700        1.36200
H          3.25100       -4.04200       -0.78900
H          4.06800       -6.30800       -0.35600
H          6.35000       -6.64700        0.56800
H          7.77600       -4.69100        1.04500
H          7.77300       -0.80700        2.06100
H          6.04300       -1.17200        2.07400
H          6.81000       -0.28700        0.69400
