33
51693-17-5.pdb
C          2.44200       -0.00200        0.07100
C          0.94000        0.04100        0.05600
C          0.24600        1.13800       -0.47600
C         -1.15400        1.15700       -0.50500
C         -1.85500        0.06300        0.00000
C         -1.17300       -1.03400        0.54500
C          0.21800       -1.04200        0.57300
S         -3.62500       -0.01500       -0.06600
O         -3.95500       -0.65400       -1.32600
O         -4.06700       -0.58300        1.19200
O         -4.19800        1.51700       -0.13200
C         -5.62300        1.60000       -0.13300
C         -6.19200        3.01200       -0.21800
C         -5.75900        3.84900       -1.41100
C         -6.19800        5.25300       -0.98900
C         -6.03300        5.20500        0.51400
O         -6.10100        6.14700        1.28200
N         -5.87500        3.88000        0.88400
H          2.87500        0.91200       -0.35100
H          2.80100       -0.84900       -0.52200
H          2.80700       -0.10300        1.09800
H          0.79600        1.98400       -0.88500
H         -1.67300        2.00800       -0.93600
H         -1.72400       -1.88700        0.93900
H          0.74000       -1.90200        0.98800
H         -6.00000        1.12900        0.78300
H         -6.00200        1.02900       -0.98900
H         -7.28800        2.92400       -0.22600
H         -6.22400        3.53000       -2.34800
H         -4.67000        3.82900       -1.53800
H         -7.25500        5.42400       -1.22000
H         -5.58000        6.03400       -1.43600
H         -5.96400        3.64400        1.86600
