22
517-22-6.pdb
C          3.57300       -0.06800        1.09000
C          2.44700       -0.04500        0.06800
C          2.94300       -0.23600       -1.33300
C          3.34800        0.75600       -2.21500
C          3.42600        2.23200       -2.07100
N          3.71700        0.14800       -3.39000
C          3.56800       -1.20600       -3.27700
C          3.09300       -1.49000       -2.01400
C          2.79700       -2.84200       -1.47000
H          3.17000        0.06000        2.10000
H          4.29200        0.73700        0.90600
H          4.11700       -1.01800        1.06000
H          1.90400        0.90400        0.14600
H          1.72100       -0.83000        0.31300
H          3.11800        2.55800       -1.07300
H          2.77600        2.72300       -2.80200
H          4.45200        2.57800       -2.23300
H          4.05200        0.62900       -4.21400
H          3.81400       -1.85600       -4.10600
H          3.01600       -3.62300       -2.20500
H          1.74100       -2.92100       -1.19600
H          3.40400       -3.03600       -0.57900
