34
51779-32-9.pdb
C          3.01400       -1.28900       -0.82100
C          2.60000       -0.10100        0.06800
C          2.99000        1.25200       -0.56200
C          1.06600       -0.13000        0.17400
O          3.13800       -0.23800        1.42600
C          4.50300       -0.23500        1.53300
O          5.23300       -0.12600        0.56200
N          4.94000       -0.37500        2.82000
C          6.28700       -0.38400        3.05600
O          7.13800       -0.18600        2.20500
O          6.60600       -0.63300        4.36500
C          8.03800       -0.70500        4.67600
C          8.75200        0.63300        4.39900
C          8.16900       -0.99000        6.18200
C          8.71200       -1.87700        3.93600
H          2.56100       -1.21900       -1.81500
H          2.70700       -2.23600       -0.36300
H          4.09300       -1.36000       -0.97200
H          2.53900        1.37300       -1.55300
H          4.06800        1.37100       -0.69200
H          2.66600        2.08300        0.07400
H          0.60100       -0.03800       -0.81600
H          0.69300        0.68600        0.80200
H          0.71800       -1.06600        0.62600
H          4.28600       -0.51100        3.57700
H          8.27600        1.44800        4.95700
H          8.72600        0.92900        3.34800
H          9.80900        0.58600        4.68200
H          7.70600       -0.19800        6.78000
H          9.22400       -1.06700        6.47800
H          7.67300       -1.92700        6.45300
H          8.68700       -1.77000        2.84900
H          8.20000       -2.81900        4.16300
H          9.76500       -1.97600        4.22200
