30
518-82-1.pdb
C          0.89800        0.03000       -0.06300
C          2.39800        0.04600       -0.06400
C          3.12700        1.23900       -0.06600
C          4.53000        1.21300       -0.06800
O          5.20000        2.40400       -0.07100
C          5.22800       -0.00400       -0.06800
C          6.71600       -0.08000       -0.07100
O          7.43700        0.91300       -0.07300
C          7.38100       -1.40200       -0.07100
C          8.78000       -1.51200       -0.07300
O          9.61400       -0.42500       -0.07300
C          9.40300       -2.76100       -0.07300
C          8.62300       -3.91100       -0.07300
O          9.17700       -5.15400       -0.07400
C          7.23600       -3.82600       -0.07200
C          6.62000       -2.57000       -0.07000
C          5.15400       -2.50200       -0.06700
O          4.48700       -3.53200       -0.06600
C          4.49100       -1.18800       -0.06600
C          3.08900       -1.16500       -0.06400
H          0.48200        1.04200       -0.06200
H          0.53100       -0.48900        0.82800
H          0.53000       -0.48800       -0.95500
H          2.59500        2.18700       -0.06500
H          4.57700        3.14700       -0.07800
H          9.05400        0.38700       -0.07300
H         10.48700       -2.81400       -0.07500
H         10.14400       -5.06800       -0.07500
H          6.64200       -4.73700       -0.07100
H          2.53200       -2.10300       -0.06300
