35
519-73-3.pdb
C          1.43300       -0.49600        0.21600
C          0.73100        0.18600        1.20800
C         -0.62000        0.49600        1.02900
C         -1.28700        0.13100       -0.15200
C         -0.55100       -0.52800       -1.15500
C          0.79200       -0.85100       -0.96800
C         -2.79100        0.39600       -0.31300
C         -3.06700        1.30500       -1.52300
C         -3.28000        0.77700       -2.81000
C         -3.53200        1.61100       -3.89700
C         -3.57200        2.99100       -3.71900
C         -3.35300        3.53600       -2.45600
C         -3.09600        2.70100       -1.36400
C         -3.68200       -0.86500       -0.28000
C         -3.17000       -2.16200       -0.10500
C         -3.99800       -3.28400       -0.18400
C         -5.36200       -3.13100       -0.40600
C         -5.90400       -1.85500       -0.52000
C         -5.07500       -0.73200       -0.44600
H          2.47700       -0.75500        0.36500
H          1.23500        0.46600        2.13000
H         -1.15000        1.01400        1.82600
H         -1.03500       -0.83500       -2.07900
H          1.33200       -1.39000       -1.74200
H         -3.11000        0.96000        0.57800
H         -3.26000       -0.29900       -2.96900
H         -3.69800        1.18100       -4.88000
H         -3.77000        3.64100       -4.56700
H         -3.37900        4.61500       -2.32100
H         -2.92000        3.14800       -0.39000
H         -2.11200       -2.33200        0.08000
H         -3.56900       -4.27700       -0.08200
H         -6.00100       -4.00600       -0.48700
H         -6.97200       -1.73000       -0.68300
H         -5.52300        0.25500       -0.55500
