18
5192-62-1.pdb
C          1.10100        0.03600       -0.05700
C          2.59300       -0.04700       -0.05700
C          3.25400       -1.20900       -0.05500
C          4.72400       -1.19200       -0.05200
O          5.34500       -2.24900       -0.05100
C          5.39800        0.13200       -0.05100
C          4.62000        1.23300       -0.05400
O          5.15200        2.50800       -0.05400
O          3.23400        1.17600       -0.05700
C          6.89600        0.13700       -0.04400
H          0.63700       -0.95600       -0.05800
H          0.74900        0.57100       -0.94500
H          0.74900        0.57000        0.83200
H          2.76900       -2.17500       -0.05500
H          6.12000        2.46000       -0.05600
H          7.32500       -0.86900       -0.04000
H          7.27200        0.65000        0.84700
H          7.28000        0.64700       -0.93400
