14
52-90-4.pdb
N          0.96400       -0.23300        0.08900
C          2.45900       -0.10200        0.09400
C          3.05400        0.01600        1.50200
S          2.38400        1.45200        2.40600
C          3.05700       -1.33500       -0.59800
O          2.09200       -2.08000       -1.19700
O          4.24300       -1.61800       -0.62700
H          0.58800        0.70100        0.29200
H          0.69300       -0.76400        0.92600
H          2.72400        0.76400       -0.52600
H          4.14300        0.11500        1.45900
H          2.83300       -0.88500        2.08700
H          3.01300        2.39500        1.68800
H          1.23900       -1.60500       -1.02900
