20
520-45-6.pdb
C          1.43600        1.06000        0.49400
C          2.41400        0.04000       -0.02800
O          2.56700       -0.13700       -1.23700
C          3.15300       -0.79700        0.98300
C          4.62500       -0.61200        0.83000
O          5.16000        0.46400        1.09400
O          5.36300       -1.66300        0.38200
C          4.81900       -2.94500        0.17000
C          3.55100       -3.25500        0.44400
C          2.66400       -2.20500        0.95300
O          1.52900       -2.50700        1.31900
C          5.79400       -3.95300       -0.35400
H          1.13100        1.72600       -0.31900
H          1.90800        1.66400        1.27300
H          0.55400        0.55300        0.89300
H          2.92200       -0.43300        1.99300
H          3.13400       -4.24600        0.31000
H          6.77200       -3.49700       -0.54200
H          5.44100       -4.38100       -1.29800
H          5.93700       -4.76100        0.37000
