26
5203-14-5.pdb
C          1.04800       -0.07900       -0.06800
C          2.56800       -0.08400       -0.08100
C          3.12600       -1.01800       -1.15300
C          4.65300       -1.03400       -1.12500
O          5.11800       -1.88700       -2.17200
C          6.47600       -2.05000       -2.26200
C          7.38400       -1.88400       -1.21500
C          8.74700       -2.12200       -1.41900
C          9.21300       -2.52600       -2.67400
C          8.30600       -2.69100       -3.72400
C          6.94400       -2.46000       -3.51300
C         10.61100       -2.78200       -2.87200
N         11.74100       -2.99300       -3.02500
H          0.67900        0.60500        0.70400
H          0.65400       -1.07700        0.14700
H          0.64800        0.24900       -1.03200
H          2.93200       -0.39000        0.90700
H          2.92800        0.93700       -0.25600
H          2.77300       -0.71700       -2.14700
H          2.75200       -2.03900       -0.99700
H          4.96900       -1.40700       -0.14600
H          5.04100       -0.02000       -1.28400
H          7.06400       -1.59500       -0.22000
H          9.43900       -1.99900       -0.58700
H          8.65000       -3.00400       -4.70800
H          6.24200       -2.59700       -4.33300
