23
52099-72-6.pdb
C          1.11700       -0.19300       -0.24300
C          2.59700       -0.07700        0.01200
C          3.26100        0.96700       -0.51500
N          3.21500       -0.99300        0.85700
C          4.32400       -0.67400        1.72200
O          4.93300        0.37800        1.86200
N          4.60000       -1.82200        2.48000
C          3.73700       -2.83500        2.10800
C          3.70400       -4.12900        2.58100
C          2.78000       -4.99300        1.99400
C          1.93700       -4.54300        0.96100
C          1.98800       -3.21600        0.51100
C          2.88700       -2.35400        1.11200
H          0.71800        0.70700       -0.72600
H          0.57400       -0.30600        0.70200
H          0.87700       -1.02400       -0.90700
H          2.76500        1.69900       -1.14400
H          4.32400        1.12000       -0.36200
H          5.33100       -1.86100        3.17000
H          4.37400       -4.47200        3.36000
H          2.72200       -6.02800        2.32200
H          1.24600       -5.24200        0.49400
H          1.35800       -2.92300       -0.31600
