20
521-31-3.pdb
N          0.99200       -0.00100       -0.02400
C          2.39600       -0.05200       -0.09200
C          3.10000        1.15900       -0.01900
C          4.49000        1.18100        0.09600
C          5.19600       -0.01500        0.18700
C          4.50900       -1.23500        0.14800
C          5.27900       -2.49000        0.27200
O          6.49200       -2.48400        0.45200
N          4.57500       -3.66200        0.18400
N          3.20500       -3.70200        0.01500
C          2.43000       -2.57400       -0.10500
O          1.22700       -2.66800       -0.33200
C          3.11800       -1.26200        0.00700
H          0.56500        0.79400       -0.48700
H          0.55200       -0.89200       -0.28200
H          2.56000        2.10300       -0.03800
H          5.01800        2.13100        0.13800
H          6.27900        0.00500        0.29800
H          5.08900       -4.53100        0.29600
H          2.74900       -4.59900       -0.12300
