22
52109-66-7.pdb
N          2.16600        2.08500       -0.17100
C          1.17400        1.47900       -0.15300
C         -0.02800        0.71000       -0.09400
N         -1.18700        1.41600       -0.17800
C         -2.32600        0.69100       -0.04500
C         -2.33700       -0.68300        0.18300
N         -1.16700       -1.37600        0.24000
C         -0.01900       -0.66300        0.08600
C          1.19000       -1.43000        0.09700
N          2.18100       -2.03600        0.08100
C         -3.56400       -1.46300        0.39900
C         -4.79200       -1.09600       -0.17800
C         -5.94500       -1.85400        0.03700
C         -5.89400       -2.99300        0.83500
C         -4.69200       -3.37400        1.42300
C         -3.54100       -2.61600        1.20600
H         -3.24200        1.27100       -0.10800
H         -4.87200       -0.22300       -0.82200
H         -6.88300       -1.55700       -0.42600
H         -6.78900       -3.58900        0.99200
H         -4.64500       -4.26400        2.04600
H         -2.61200       -2.93500        1.67800
