20
52178-50-4.pdb
C          1.03100        0.02400       -0.69800
O          2.45800        0.02900       -0.77100
C          3.02500        1.20000       -0.39400
O          2.43200        2.19500       -0.01200
C          4.50500        1.13500       -0.52000
C          5.17300       -0.01600       -0.96300
C          6.56400       -0.01500       -1.09500
C          7.29200        1.13400       -0.78900
C          6.62900        2.28100       -0.34500
C          7.38900        3.51000       -0.04600
O          8.60500        3.57000       -0.18300
C          5.24000        2.28500       -0.19900
H          0.68700       -1.00200       -0.85000
H          0.61500        0.65300       -1.49100
H          0.68500        0.36100        0.28500
H          4.62300       -0.91900       -1.21700
H          7.07800       -0.90800       -1.44500
H          8.37500        1.13600       -0.90500
H          6.80700        4.38100        0.30000
H          4.72400        3.17800        0.14900
