44
523-31-9.pdb
O          0.93800       -0.01000        0.02200
C          2.14600        0.02600       -0.14400
O          2.96700       -1.01700       -0.41300
C          2.31000       -2.27900       -0.58600
C          2.31800       -3.04500        0.71100
C          1.23800       -2.94300        1.60000
C          1.24700       -3.63800        2.81000
C          2.33600       -4.44000        3.14500
C          3.42000       -4.54000        2.27400
C          3.41500       -3.84200        1.06500
C          2.94800        1.25100        0.05000
C          2.61700        2.04300        1.16300
C          3.34800        3.19600        1.45500
C          4.41700        3.56400        0.64200
C          4.73500        2.79800       -0.48000
C          3.99000        1.64900       -0.79900
C          4.31700        0.99800       -2.08900
O          5.42900        1.02400       -2.59200
O          3.17800        0.56800       -2.67400
C          3.25600        0.31900       -4.08300
C          2.77300        1.56100       -4.78800
C          3.61300        2.26400       -5.66200
C          3.17100        3.44400       -6.26400
C          1.89300        3.93100       -5.99500
C          1.05000        3.23800       -5.13100
C          1.48500        2.05700       -4.53100
H          2.86600       -2.83700       -1.34900
H          1.29200       -2.17100       -0.98100
H          0.38400       -2.31400        1.35400
H          0.40400       -3.55100        3.49000
H          2.34200       -4.98200        4.08600
H          4.27200       -5.16100        2.53900
H          4.27300       -3.92200        0.40100
H          1.78700        1.75900        1.80800
H          3.08400        3.80400        2.31700
H          4.99300        4.45900        0.87000
H          5.55100        3.11800       -1.12800
H          2.58700       -0.51500       -4.31700
H          4.26200        0.02100       -4.40300
H          4.62100        1.90900       -5.86300
H          3.83100        3.98900       -6.93500
H          1.55700        4.85700       -6.45500
H          0.05700        3.62400       -4.91000
H          0.82700        1.53300       -3.84200
