11
52328-05-9.pdb
C          1.01700        0.09200       -0.08500
O          2.44800        0.15000       -0.11600
C          3.08300        1.18000       -0.70900
N          2.37600        2.16800       -1.27800
N          4.36500        1.17300       -0.70500
H          0.72700       -0.82200        0.44100
H          0.61600        0.04800       -1.10200
H          0.61400        0.94900        0.46200
H          1.37300        2.21700       -1.30500
H          2.90900        2.91300       -1.70600
H          4.64000        0.31600       -0.21200
