30
52340-78-0.pdb
O          5.16900        1.14000       -0.27100
C          4.46200        0.98900        0.97500
C          2.92000        1.07100        0.73900
O          2.49400        0.14000       -0.26500
C          2.45100        2.45100        0.29600
C          1.58400        3.20700        1.10000
C          1.14900        4.47100        0.69000
C          1.57400        4.99900       -0.52700
C          2.42600        4.26300       -1.34100
C          2.85600        2.99800       -0.93500
C          4.95300       -0.31300        1.58900
C          5.52600       -0.33100        2.86900
C          6.06900       -1.51100        3.38700
C          6.04500       -2.68700        2.64000
C          5.46800       -2.68800        1.37400
C          4.92600       -1.51200        0.85400
H          6.10200        0.93600       -0.07900
H          4.76400        1.82700        1.61500
H          2.40200        0.79400        1.66500
H          3.17600        0.19200       -0.95800
H          1.22800        2.81100        2.04900
H          0.47500        5.04500        1.32200
H          1.23600        5.98400       -0.84200
H          2.75400        4.66500       -2.29600
H          3.51000        2.43800       -1.59900
H          5.57500        0.57600        3.46800
H          6.52500       -1.51100        4.37500
H          6.47900       -3.59900        3.03900
H          5.45000       -3.59900        0.78100
H          4.50000       -1.53500       -0.14700
