48
52364-73-5.pdb
C          0.93900        0.02100       -0.18600
C          2.45700        0.03000       -0.17800
C          2.98700        1.27700        0.51900
C          4.51200        1.29100        0.53100
C          5.03300        2.54100        1.23200
C          6.55700        2.55400        1.24300
C          7.08900        3.79800        1.94300
C          8.61000        3.80000        1.94800
O          9.05700        4.98400        2.61100
C         10.41400        5.14400        2.68500
C         11.35600        4.24400        2.19300
C         12.72200        4.52700        2.28600
C         13.17900        5.71700        2.87100
C         12.20900        6.62800        3.33300
C         10.84600        6.33500        3.26300
C         14.61800        6.02000        3.00800
C         15.57100        5.53000        2.10100
C         16.92500        5.86700        2.22100
C         17.35500        6.70900        3.25100
C         16.42300        7.20000        4.16700
C         15.07700        6.84000        4.05500
C         18.73600        7.06400        3.37100
N         19.86300        7.35200        3.47200
H          0.56600       -0.87600       -0.68800
H          0.54800        0.89700       -0.71400
H          0.54400        0.03200        0.83500
H          2.82700       -0.00800       -1.20900
H          2.82400       -0.86800        0.33200
H          2.61200        1.31400        1.54900
H          2.61500        2.17400        0.00800
H          4.89000        1.25800       -0.49800
H          4.88600        0.39600        1.04200
H          4.65500        2.57300        2.26100
H          4.65800        3.43600        0.72100
H          6.93200        2.51800        0.21300
H          6.92900        1.65600        1.75300
H          6.71500        3.85300        2.97200
H          6.72700        4.70200        1.43900
H          8.96000        3.77600        0.90800
H          8.98500        2.91800        2.48300
H         11.06000        3.32200        1.70700
H         13.42600        3.79800        1.89300
H         12.51200        7.58500        3.74600
H         10.12400        7.05100        3.64300
H         15.26400        4.89400        1.27400
H         17.63700        5.47600        1.49600
H         16.72900        7.86400        4.97000
H         14.37700        7.21200        4.80200
