18
524-42-5.pdb
O         -3.21300       -0.02500        0.03600
C         -2.01700       -0.27300        0.02800
C         -1.53900       -1.67200        0.03800
C         -0.23500       -1.96000       -0.00200
C          0.79300       -0.91900       -0.02900
C          2.14700       -1.27700       -0.05800
C          3.14000       -0.29400       -0.01800
C          2.79200        1.05400        0.03800
C          1.44900        1.42600        0.03700
C          0.45500        0.44000        0.00300
C         -0.96900        0.83500        0.00900
O         -1.30400        2.01100       -0.00200
H         -2.30300       -2.43900        0.08100
H          0.08900       -2.99800        0.00900
H          2.44600       -2.32300       -0.10100
H          4.18900       -0.58300       -0.02300
H          3.56700        1.81700        0.08100
H          1.17900        2.48000        0.07200
