19
52431-78-4.pdb
O          2.28400       -0.03600        0.08200
C          0.92400       -0.02900        0.05700
C          0.18700       -1.20300        0.16800
C         -1.21100       -1.14100        0.13100
C         -1.87600        0.08300       -0.05800
C         -1.11000        1.24900       -0.14800
C          0.28500        1.19500       -0.08200
N         -3.28300        0.10500       -0.12200
N         -4.06400       -0.84800        0.49500
N         -5.37700       -0.51600        0.31800
N         -5.45100        0.45000       -0.49300
C         -4.17600        0.88400       -0.82800
S         -3.86400        2.06800       -1.97300
H          2.59400       -0.95500        0.08200
H          0.67600       -2.16600        0.27400
H         -1.77000       -2.07200        0.19200
H         -1.57400        2.23000       -0.22000
H          0.86900        2.10800       -0.14200
H         -3.84800       -1.03500        1.47400
