32
52450-18-7.pdb
C          9.70100        0.37700        0.66800
C          8.73700        0.98700       -0.29800
C          7.56800        1.54400        0.04600
N          6.68700        2.08500       -0.88000
C          5.37700        2.62900       -0.47600
C          5.24400        3.23700        0.92800
C          5.15000        4.74800        0.73900
N          3.83000        5.21500        1.19000
C          5.36900        4.95400       -0.75700
C          6.82200        5.31200       -1.10100
O          6.99100        5.39600       -2.51400
O          5.01600        3.70400       -1.36200
C          6.91800        1.89700       -2.24800
O          6.11400        2.11900       -3.14800
N          8.16400        1.44300       -2.58400
C          9.09900        0.94500       -1.73100
O         10.15900        0.46400       -2.12000
H          9.35700        0.47200        1.70300
H         10.67900        0.86600        0.59700
H          9.83000       -0.68900        0.45500
H          7.28200        1.55300        1.09000
H          4.65100        1.82000       -0.61800
H          6.04600        3.00000        1.62900
H          4.33400        2.83800        1.39500
H          5.90400        5.27300        1.33500
H          3.10400        4.81900        0.58900
H          3.76100        6.22500        1.05700
H          4.71200        5.71900       -1.18500
H          7.53500        4.57100       -0.73000
H          7.09000        6.28000       -0.66800
H          6.56000        4.60200       -2.89400
H          8.35700        1.35800       -3.56900
