27
525-82-6.pdb
O         -1.76900        2.00000        0.06700
C         -1.36800        0.84400        0.02800
C         -2.31200       -0.28300       -0.03600
C         -1.84200       -1.54000       -0.03700
O         -0.49100       -1.85900        0.01900
C          0.42500       -0.83900        0.02500
C          1.77300       -1.19300        0.02100
C          2.75300       -0.19800        0.00800
C          2.38500        1.14900        0.00400
C          1.03600        1.50500        0.01700
C          0.06000        0.50400        0.02700
C         -2.73600       -2.71800       -0.13000
C         -2.28600       -3.89200       -0.75700
C         -3.10400       -5.02000       -0.84900
C         -4.38800       -4.99400       -0.31300
C         -4.85300       -3.84300        0.31700
C         -4.03100       -2.71500        0.41100
H         -3.35900       -0.02200       -0.09700
H          2.06300       -2.24100        0.02300
H          3.80500       -0.47200       -0.00100
H          3.14900        1.92300       -0.01100
H          0.74600        2.55300        0.01300
H         -1.28800       -3.93900       -1.19000
H         -2.73700       -5.91800       -1.33800
H         -5.02600       -5.87200       -0.38200
H         -5.85400       -3.82100        0.73900
H         -4.42100       -1.84100        0.92700
