19
52605-97-7.pdb
C          1.09700       -0.40600        0.20200
O          2.43300        0.05500        0.03900
C          3.10100        0.40300        1.18400
C          2.74600       -0.02500        2.46400
C          3.49800        0.38300        3.56500
C          4.58700        1.20700        3.35100
N          4.97200        1.63400        2.13300
C          4.23200        1.21900        1.07400
O          4.61100        1.62700       -0.19400
C          5.76100        2.46800       -0.18800
H          0.65600       -0.52700       -0.79100
H          0.49200        0.32500        0.75100
H          1.07100       -1.38400        0.69400
H          1.90500       -0.68600        2.63600
H          3.23900        0.05900        4.56700
H          5.20000        1.55200        4.17900
H          6.02100        2.69200       -1.22700
H          6.62400        1.96900        0.26600
H          5.54800        3.41800        0.31500
