23
52602-39-8.pdb
O          1.45400        2.45800       -0.02200
C          1.69100        1.10400       -0.03300
C          3.00600        0.62700       -0.06600
C          3.25600       -0.74400       -0.07500
C          2.20800       -1.67000       -0.04200
C          0.90000       -1.17000       -0.01400
N         -0.30100       -1.83900        0.01700
C         -1.35700       -0.95900        0.00000
C         -2.73700       -1.20400       -0.00800
C         -3.59000       -0.09700       -0.04000
C         -3.08300        1.19900       -0.05600
C         -1.70200        1.42400       -0.04000
C         -0.81700        0.32600       -0.01600
C          0.61100        0.19500       -0.01800
H          2.30800        2.91900        0.00400
H          3.84600        1.31400       -0.09100
H          4.28200       -1.10200       -0.10800
H          2.40900       -2.73600       -0.04600
H         -0.39600       -2.84300        0.03500
H         -3.13500       -2.21300        0.00300
H         -4.66600       -0.25200       -0.05700
H         -3.76200        2.04800       -0.08300
H         -1.30900        2.43700       -0.05500
