21
5263-87-6.pdb
C          1.35700        0.82000        0.25700
O          2.44500       -0.07700        0.06300
C          3.05000       -0.04200       -1.16300
C          2.67300        0.76500       -2.23200
C          3.37800        0.70500       -3.44000
C          4.45900       -0.14300       -3.61500
N          5.09600       -0.15400       -4.79800
C          6.14700       -0.98800       -4.94100
C          6.60500       -1.82800       -3.94500
C          5.94200       -1.81400       -2.72300
C          4.84400       -0.96200       -2.53400
C          4.13600       -0.90600       -1.31800
H          0.98600        0.68800        1.27700
H          0.53400        0.59500       -0.43000
H          1.68400        1.86100        0.15300
H          1.83700        1.45300       -2.16900
H          3.07200        1.34200       -4.26700
H          6.62700       -0.95900       -5.91500
H          7.45600       -2.47700       -4.11500
H          6.28300       -2.46500       -1.92200
H          4.43100       -1.53800       -0.48400
