24
52768-23-7.pdb
O          2.95100        1.33900        0.06300
C          1.75200        0.68900        0.01200
C          0.55600        1.40300        0.01300
C         -0.66900        0.72000       -0.03500
C         -1.95500        1.51400        0.02800
C         -3.20300        0.69400       -0.29500
N         -3.12300       -0.63900        0.37400
C         -1.97900       -1.44700       -0.14000
C         -0.68100       -0.69100       -0.07000
C          0.53300       -1.39700       -0.08300
C          1.74100       -0.70400       -0.03400
O          2.92800       -1.37600       -0.02800
H          2.81700        2.29800        0.06200
H          0.57400        2.49000        0.05900
H         -1.90300        2.36200       -0.66600
H         -2.04800        1.92200        1.04200
H         -3.30900        0.50900       -1.36900
H         -4.10900        1.18700        0.07200
H         -3.99800       -1.16100        0.24400
H         -3.00200       -0.51300        1.38800
H         -2.21100       -1.71400       -1.17700
H         -1.94700       -2.35300        0.47200
H          0.54000       -2.48300       -0.12700
H          2.78700       -2.33400       -0.04000
