20
528-21-2.pdb
C          3.17200        1.30900       -0.38500
C          2.54800       -0.00100        0.01600
O          1.37300       -0.25900       -0.24500
C          3.38400       -1.03100        0.69100
C          3.02900       -2.38200        0.50900
C          3.78400       -3.41200        1.08600
C          4.89200       -3.08600        1.85600
O          5.67800       -4.03800        2.44200
C          5.23400       -1.75300        2.05800
O          6.31600       -1.42600        2.83300
C          4.48900       -0.72500        1.48500
O          4.87200        0.55900        1.75400
H          2.52500        1.80400       -1.11700
H          4.14000        1.13700       -0.86600
H          3.27400        1.96800        0.47900
H          2.15900       -2.63500       -0.09700
H          3.49100       -4.44300        0.91800
H          5.32400       -4.91400        2.20700
H          6.67700       -2.29000        3.12200
H          5.64100        0.47500        2.35600
