45
528-50-7.pdb
O          2.95100       -0.40700       -1.55300
C          2.31400       -0.38500       -0.28200
C          2.93200        0.66600        0.66700
O          2.69800        2.01600        0.22800
C          3.47000        2.42000       -0.90600
O          3.16800        3.79500       -1.22800
C          1.75100        4.08100       -1.35900
C          1.09800        3.38700       -2.57500
O         -0.34700        3.37900       -2.50500
C          1.46500        4.06100       -3.90500
O          0.65400        3.49000       -4.95000
C          1.27400        5.59100       -3.83000
O         -0.10600        5.96400       -3.75200
O          1.98400        6.13500       -2.72300
C          1.53000        5.60800       -1.46600
C          2.24800        6.38900       -0.36500
O          1.86900        7.76500       -0.43700
C          4.98400        2.28200       -0.60200
O          5.38900        3.13500        0.49100
C          5.31200        0.84500       -0.18000
O          6.68400        0.74000        0.24100
C          4.41200        0.41800        0.99000
O          4.61800       -0.95700        1.33300
H          2.59400       -1.17700       -2.03400
H          2.39100       -1.38500        0.15100
H          1.26200       -0.14900       -0.45200
H          2.37600        0.56200        1.60800
H          3.22900        1.82500       -1.78600
H          1.25400        3.75800       -0.44100
H          1.38000        2.33200       -2.63700
H         -0.63300        3.76800       -1.65800
H          2.51500        3.85300       -4.13700
H         -0.13400        3.10100       -4.51100
H          1.65200        6.04600       -4.74700
H         -0.62500        5.14700       -3.85400
H          0.45800        5.82600       -1.37700
H          3.33600        6.34600       -0.47400
H          1.97000        6.01700        0.62600
H          1.99200        8.02200       -1.37300
H          5.58700        2.58700       -1.46400
H          4.64300        3.74300        0.65900
H          5.21300        0.15400       -1.02000
H          6.87500        1.58000        0.71000
H          4.69100        1.00300        1.87600
H          5.50700       -1.19400        1.00600
