18
529-36-2.pdb
S          0.98900       -0.12300        0.17100
C          2.71800       -0.00100        0.12700
C          3.41400       -1.21600        0.10900
C          4.80500       -1.23100        0.07600
C          5.51200       -0.03100        0.05700
C          4.84200        1.20200        0.06500
C          5.58300        2.40000        0.03000
C          4.95000        3.64200        0.03300
C          3.56500        3.70500        0.07800
C          2.81800        2.52500        0.11500
C          3.42300        1.24000        0.10500
H          2.87400       -2.16000        0.12100
H          5.33100       -2.17900        0.06500
H          6.59800       -0.06700        0.03100
H          6.66800        2.36700       -0.00300
H          5.53700        4.55400       -0.00100
H          3.05200        4.66100        0.08200
H          1.73200        2.59600        0.15000
