16
529-19-1.pdb
C          0.79400       -2.14700        0.01500
C         -0.12100       -0.95200        0.00700
C         -1.51100       -1.14100        0.00400
C         -2.37800       -0.04700        0.00200
C         -1.86800        1.25000        0.00200
C         -0.48800        1.45300        0.00300
C          0.38900        0.36100        0.00500
C          1.80500        0.60400        0.00300
N          2.95100        0.78600        0.00100
H          0.23100       -3.08600        0.00600
H          1.41400       -2.14200        0.91800
H          1.43800       -2.13900       -0.87000
H         -1.93200       -2.14600        0.00500
H         -3.45400       -0.20700        0.00100
H         -2.54500        2.10000        0.00300
H         -0.10100        2.47200        0.00400
