22
529-84-0.pdb
C          1.04200        0.15500       -0.07400
C          2.54100        0.09500       -0.07900
C          3.28600        1.21100       -0.09000
C          4.75600        1.20700       -0.09100
O          5.38700        2.25700       -0.09400
O          5.37900       -0.03000       -0.09100
C          4.63000       -1.22300       -0.05200
C          5.36700       -2.40900        0.00100
C          4.67700       -3.60800        0.06800
O          5.31900       -4.81200        0.15100
C          3.28400       -3.61500        0.06100
O          2.61100       -4.80100        0.13600
C          2.55700       -2.43000       -0.00600
C          3.22800       -1.20300       -0.05200
H          0.67500        1.18800       -0.05900
H          0.63400       -0.34300        0.81200
H          0.63200       -0.32200       -0.97000
H          2.83900        2.19900       -0.09700
H          6.45100       -2.37000       -0.00200
H          6.27800       -4.64600        0.18600
H          3.31100       -5.48100        0.19900
H          1.47200       -2.49200       -0.00700
