34
5292-53-5.pdb
C          4.88400       -1.76100       -1.79500
C          5.11300       -0.46800       -1.03700
O          5.48300       -0.82800        0.30000
C          4.49500       -0.79000        1.23200
O          3.38900       -0.30200        1.06200
C          4.93000       -1.55300        2.43000
C          4.05600       -2.21200        3.22100
C          2.60400       -2.28400        3.03700
C          2.03600       -3.29500        2.25100
C          0.65200       -3.34300        2.06500
C         -0.16400       -2.38500        2.66400
C          0.39500       -1.38200        3.45400
C          1.77900       -1.33400        3.64400
C          6.38600       -1.66300        2.71900
O          7.21000       -0.80800        2.44000
O          6.66500       -2.89300        3.22600
C          8.02300       -3.33300        3.08600
C          8.08800       -4.19500        1.83700
H          4.46900       -1.57300       -2.78700
H          4.20900       -2.42300       -1.24100
H          5.83000       -2.30200       -1.90600
H          4.22700        0.17500       -1.07000
H          5.94300        0.09200       -1.48000
H          4.40400       -2.78300        4.07900
H          2.66100       -4.04400        1.77400
H          0.21200       -4.12100        1.44800
H         -1.24000       -2.41000        2.50600
H         -0.23900       -0.62800        3.91000
H          2.20400       -0.53600        4.24700
H          8.27600       -3.92700        3.96900
H          8.73300       -2.50200        3.03000
H          7.39800       -5.04100        1.92500
H          9.09800       -4.57600        1.67000
H          7.77200       -3.62500        0.95700
