51
53-41-8.pdb
C          1.69600        3.73300        0.11800
C          1.65400        2.17500        0.34300
C          2.77200        1.96200        1.40700
C          3.55500        0.64800        1.47600
C          3.83600       -0.03200        0.13400
O          3.09700       -1.26100        0.09200
C          3.44400        0.82600       -1.07600
C          2.00100        1.26300       -0.90100
C          1.29400        1.67400       -2.18600
C         -0.19500        1.46800       -1.95300
C         -0.67100        2.25400       -0.71400
C          0.11200        1.77600        0.58500
C         -0.61000        2.17500        1.89400
C         -2.13800        1.87300        1.84200
C         -2.80900        2.63900        0.68100
C         -2.79800        4.14000        1.00300
C         -2.16700        2.13800       -0.61600
C         -2.94700        2.86900       -1.71000
C         -4.38600        2.60300       -1.28700
C         -4.25200        2.35900        0.22800
O         -5.17700        2.03900        0.94900
H          1.98100        4.01600       -0.89400
H          2.39000        4.24800        0.79400
H          0.74400        4.22000        0.36400
H          3.58200        2.67000        1.13900
H          2.44800        2.27300        2.40200
H          4.53400        0.88800        1.91300
H          3.06700       -0.02900        2.18800
H          4.89100       -0.31800        0.05300
H          3.27100       -1.74400        0.91900
H          4.11100        1.68900       -1.18200
H          3.53600        0.21000       -1.97400
H          1.52900        0.28900       -0.68100
H          1.60700        1.04900       -3.02900
H          1.49700        2.71100       -2.46700
H         -0.73900        1.75300       -2.85700
H         -0.39600        0.39800       -1.80100
H         -0.47300        3.30900       -0.90400
H          0.06100        0.67700        0.62000
H         -0.18300        1.60700        2.72900
H         -0.43800        3.22800        2.13000
H         -2.61300        2.14300        2.79000
H         -2.30800        0.79400        1.71700
H         -1.81100        4.55500        1.14700
H         -3.37700        4.31700        1.93300
H         -3.31100        4.75300        0.24700
H         -2.40400        1.06100       -0.71500
H         -2.71200        3.94200       -1.70800
H         -2.74500        2.50500       -2.72000
H         -4.75800        1.70000       -1.77500
H         -5.03000        3.45900       -1.50200
