23
530-91-6.pdb
O          0.96900       -0.08800        0.06600
C          2.39400       -0.11100       -0.00100
C          2.92900       -1.27500        0.82600
C          4.44500       -1.36800        0.68200
C          5.14100       -0.04000        0.85300
C          6.52900       -0.02200        1.05800
C          7.21000        1.18700        1.19900
C          6.51300        2.38900        1.13200
C          5.13600        2.38600        0.91300
C          4.44200        1.17700        0.75500
C          2.94800        1.21000        0.53800
H          0.64600       -0.91900       -0.32200
H          2.67700       -0.23400       -1.05400
H          2.46100       -2.21700        0.51900
H          2.65400       -1.13400        1.88000
H          4.69000       -1.75500       -0.31500
H          4.82500       -2.08600        1.41900
H          7.08700       -0.95400        1.11100
H          8.28500        1.18900        1.36200
H          7.04200        3.33200        1.24900
H          4.60300        3.33300        0.86600
H          2.68500        2.01300       -0.16200
H          2.46000        1.45800        1.49000
