26
530-48-3.pdb
C          1.02800        0.06100        0.06000
C          2.37200        0.09900       -0.01600
C          3.08100        0.30500        1.26800
C          3.38600       -0.78400        2.09600
C          4.14100       -0.59500        3.25400
C          4.58100        0.68200        3.59900
C          4.26100        1.77400        2.79200
C          3.51400        1.58600        1.62800
C          3.08200       -0.07700       -1.31500
C          2.53600        0.34600       -2.53600
C          3.25200        0.20600       -3.73000
C          4.52900       -0.35000       -3.72200
C          5.09200       -0.76800       -2.52200
C          4.37400       -0.63000       -1.33000
H          0.50800        0.19400        1.00600
H          0.39700       -0.11000       -0.80500
H          3.06200       -1.78600        1.82300
H          4.39800       -1.44600        3.88000
H          5.18000        0.82700        4.49500
H          4.60400        2.76900        3.06000
H          3.28500        2.43800        0.99200
H          1.55400        0.80800       -2.57800
H          2.81300        0.54100       -4.66700
H          5.08800       -0.44900       -4.64900
H          6.09100       -1.19400       -2.50400
H          4.84700       -0.96100       -0.40900
