34
530-75-6.pdb
C          0.89000       -0.83300       -0.98800
C          2.34900       -1.16600       -0.95300
O          2.78100       -2.29400       -0.75900
O          3.10300       -0.01700       -1.21900
C          4.51300       -0.10100       -1.27600
C          5.22400       -0.92400       -0.39700
C          6.61100       -1.03600       -0.50700
C          7.29800       -0.30900       -1.47300
C          6.60300        0.55500       -2.31800
C          5.20800        0.68200       -2.20800
C          4.57600        1.72400       -3.04700
O          4.92300        2.01100       -4.17800
O          3.69900        2.44300       -2.24700
C          3.71900        3.85800       -2.26400
C          4.88700        4.55800       -2.59700
C          4.94400        5.94100       -2.43300
C          3.84100        6.63300       -1.93900
C          2.67700        5.93900       -1.60300
C          2.60500        4.54500       -1.75600
C          1.36200        3.87500       -1.28900
O          1.05300        2.73300       -1.94000
O          0.64900        4.34600       -0.41800
H          0.31900       -1.72500       -0.70600
H          0.60400       -0.54400       -2.00200
H          0.66100       -0.04000       -0.27400
H          4.71800       -1.49900        0.37300
H          7.15100       -1.70100        0.16500
H          8.38000       -0.40200       -1.55700
H          7.15400        1.14800       -3.04600
H          5.77600        4.04600       -2.95500
H          5.86200        6.47600       -2.67100
H          3.89400        7.71000       -1.79800
H          1.82900        6.49000       -1.19800
H          1.68900        2.50400       -2.64600
