24
530-57-4.pdb
C          1.08900        0.04000       -0.01500
O          2.51000        0.02500       -0.05600
C          3.15600        1.23100       -0.06500
C          2.52900        2.47800       -0.05300
C          3.29200        3.65600       -0.06100
C          4.69400        3.59900       -0.05800
C          5.33200        2.36000       -0.08000
O          6.68900        2.15600       -0.08700
C          7.51700        3.31400       -0.10900
C          4.55600        1.19000       -0.08200
O          5.19600       -0.02600       -0.08900
C          2.56300        4.94900       -0.01000
O          3.19100        5.96400       -0.63900
O          1.47600        5.07000        0.52700
H          0.74200       -0.99800       -0.01200
H          0.67400        0.52600       -0.90400
H          0.72600        0.51500        0.90200
H          1.44500        2.56500       -0.02900
H          5.26600        4.51700       -0.00200
H          8.55900        2.98100       -0.12700
H          7.37400        3.91600        0.79300
H          7.34100        3.90700       -1.01300
H          6.15000        0.17700       -0.06500
H          3.94100        5.71100       -1.20700
