21
530-93-8.pdb
O          1.20800        0.01800        0.29400
C          2.41100       -0.02100        0.03800
C          3.21200       -1.28800        0.17000
C          3.91100       -1.56300       -1.15200
C          4.61800       -0.35600       -1.72200
C          5.59300       -0.54600       -2.71300
C          6.23500        0.54600       -3.29700
C          5.90900        1.83900       -2.90000
C          4.93200        2.04300       -1.92600
C          4.26800        0.95300       -1.34200
C          3.20500        1.21900       -0.30300
H          2.55300       -2.11900        0.43800
H          3.93300       -1.15100        0.98500
H          3.17500       -1.90200       -1.89100
H          4.63100       -2.37800       -1.00200
H          5.85400       -1.55000       -3.04200
H          6.98500        0.38700       -4.06700
H          6.40800        2.69000       -3.35600
H          4.68200        3.06000       -1.63200
H          2.51000        1.98200       -0.67200
H          3.67700        1.57500        0.61800
