28
530-59-6.pdb
C          1.08400       -0.03100       -0.03400
O          2.50300       -0.02800       -0.05700
C          3.13500        1.18800       -0.06200
C          2.48900        2.42800       -0.06000
C          3.22300        3.62800       -0.06000
C          2.57400        4.95500       -0.08000
C          1.38600        5.21500        0.49100
C          0.70200        6.52100        0.56000
O          1.10300        7.43900       -0.33700
O         -0.18800        6.72800        1.36700
C          4.62600        3.57100       -0.09200
C          5.28800        2.34300       -0.09600
O          6.64900        2.16200       -0.11800
C          7.45100        3.33800       -0.13300
C          4.53300        1.16200       -0.07800
O          5.19200       -0.04500       -0.08000
H          0.74800       -1.07200       -0.04100
H          0.67400        0.45500       -0.92600
H          0.70300        0.43600        0.88100
H          1.40500        2.47500       -0.06600
H          3.15900        5.73800       -0.55200
H          0.84400        4.44700        1.03600
H          1.71300        7.11700       -1.02000
H          5.18500        4.50100       -0.10200
H          8.50100        3.02800       -0.14500
H          7.29100        3.93500        0.77200
H          7.26800        3.92900       -1.03500
H          6.14200        0.17800       -0.08400
