20
53055-05-3.pdb
C          0.94900        0.01600        0.21600
O          2.28600        0.05900       -0.26900
C          2.98000        1.22700       -0.11200
C          2.62400        2.24100        0.78300
C          3.43100        3.37400        0.92800
C          4.62100        3.49100        0.20800
C          5.00600        2.48600       -0.68700
C          6.29900        2.64200       -1.39300
O          7.00000        3.63100       -1.21400
C          4.16100        1.38300       -0.85600
N          4.45000        0.41300       -1.88300
O          3.74600        0.44300       -2.90000
O          5.43000       -0.32300       -1.70200
H          0.54800       -0.97900       -0.00000
H          0.32900        0.75300       -0.30500
H          0.90500        0.15500        1.30100
H          1.72900        2.18000        1.39400
H          3.13700        4.16300        1.61800
H          5.24300        4.37400        0.34900
H          6.63200        1.84400       -2.07400
