24
53088-69-0.pdb
C          3.77500       -2.53000        0.81300
O          3.94800       -1.15100        1.14900
C          4.40700       -0.38100        0.11400
O          4.63000       -0.80100       -1.01100
C          4.59500        1.04100        0.59800
C          5.11900        1.99400       -0.45200
C          4.23900        2.73300       -1.25400
C          4.73300        3.60900       -2.22100
C          6.10900        3.75400       -2.40100
C          7.00400        3.02100       -1.61700
C          8.48600        3.16300       -1.80200
C          6.50100        2.14100       -0.64800
H          3.38300       -3.04800        1.69200
H          4.73800       -2.97900        0.54800
H          3.05600       -2.64300       -0.00400
H          5.29700        1.02300        1.44200
H          3.63600        1.41100        0.97800
H          3.16300        2.63100       -1.13500
H          4.04500        4.17800       -2.84100
H          6.47500        4.43900       -3.16300
H          8.72500        3.88700       -2.58700
H          8.92500        2.20100       -2.08600
H          8.94900        3.51100       -0.87300
H          7.19700        1.56200       -0.04300
