21
531-59-9.pdb
C          1.41200       -0.93400        0.06100
O          2.51800       -0.04600       -0.08300
C          3.12300        0.35500        1.07800
C          4.19300        1.24300        0.91800
C          4.89800        1.72700        2.02900
C          4.52900        1.32500        3.31200
C          5.22300        1.78300        4.50500
C          4.79400        1.38500        5.70600
C          3.63400        0.49300        5.87800
O          3.24900        0.18000        7.00000
O          3.02100        0.02700        4.72700
C          3.45700        0.44800        3.45500
C          2.75500       -0.04700        2.35900
H          1.02000       -1.15200       -0.93600
H          0.60800       -0.46900        0.64100
H          1.72700       -1.88100        0.51100
H          4.48100        1.56300       -0.08200
H          5.72600        2.41400        1.87400
H          6.08000        2.43700        4.40200
H          5.28000        1.70100        6.62100
H          1.93600       -0.73200        2.54200
