40
531-75-9.pdb
O          4.96300        0.32000       -0.58400
C          4.38600       -0.97200       -0.79600
C          2.88200       -0.83000       -1.05500
O          2.70900       -0.16000       -2.30300
C          1.35700        0.20100       -2.59100
O          1.25400        0.91400       -3.83700
C          2.26000        1.80300       -4.13100
C          2.99500        2.49900       -3.16100
C          4.06900        3.31000       -3.53500
C          4.91300        3.96400       -2.54900
C          5.94100        4.71200       -2.95700
C          6.25100        4.91600       -4.38200
O          7.19400        5.62500       -4.72100
O          5.43700        4.27400       -5.30600
C          4.35900        3.46700       -4.88700
C          3.61100        2.83400       -5.87600
C          2.56200        2.00100       -5.48800
O          1.83100        1.33900       -6.43700
C          0.49100       -1.08100       -2.68800
O         -0.90700       -0.78500       -2.84500
C          0.70300       -1.98200       -1.45200
O          0.05400       -3.25000       -1.61800
C          2.19800       -2.19400       -1.14800
O          2.40000       -2.94400        0.04900
H          5.92600        0.18600       -0.54700
H          4.58400       -1.56800        0.10000
H          4.88400       -1.42700       -1.65700
H          2.44900       -0.22100       -0.25000
H          0.95400        0.85800       -1.80500
H          2.76800        2.38100       -2.10600
H          4.70900        3.81200       -1.49400
H          6.60300        5.20400       -2.25500
H          3.86600        2.97900       -6.91900
H          2.14900        1.59100       -7.31800
H          0.77400       -1.63900       -3.59100
H         -1.23800       -0.36700       -2.03300
H          0.21200       -1.53100       -0.58100
H          0.39700       -3.66700       -2.42900
H          2.63900       -2.77800       -1.96600
H          1.80600       -2.60400        0.74100
