21
5312-97-0.pdb
C          1.09800        0.12200        0.41000
O          2.47100        0.08400        0.03200
C          3.11300        1.28900       -0.01100
C          2.75700        2.42100        0.70800
C          3.51300        3.59000        0.57800
C          4.63700        3.65700       -0.26300
O          5.20400        4.90000       -0.23500
C          6.33800        5.19900       -1.03400
C          5.00500        2.50700       -0.97200
C          4.24000        1.33200       -0.83200
C          6.12900        2.42300       -1.85600
N          7.03600        2.34000       -2.57900
H          0.69200       -0.88700        0.29100
H          0.53100        0.79200       -0.24500
H          0.98000        0.40400        1.46100
H          1.91200        2.42900        1.38900
H          3.22300        4.47100        1.15000
H          6.58200        6.25400       -0.87800
H          6.11900        5.07400       -2.09800
H          7.20700        4.61600       -0.71600
H          4.51900        0.43200       -1.38000
