36
53188-07-1.pdb
C          1.08900        0.09700        0.02800
C          2.59800        0.01800        0.03600
C          3.33200       -1.18800        0.08000
C          2.68000       -2.54700        0.13400
C          4.74800       -1.12800        0.06600
O          5.41200       -2.34400        0.05000
C          6.79700       -2.30000       -0.35600
C          6.88600       -2.15300       -1.88200
C          7.52000       -1.22200        0.44200
C          6.94000        0.13600        0.11200
C          5.43300        0.10700        0.06600
C          4.70200        1.31200       -0.01500
C          5.39000        2.65100       -0.10500
C          3.29900        1.24100       -0.01900
O          2.53000        2.37900       -0.08100
C          7.47300       -3.63800       -0.00700
O          6.63400       -4.52400        0.58200
O          8.64900       -3.89800       -0.22700
H          0.58100       -0.86400        0.06900
H          0.74800        0.59400       -0.88800
H          0.74300        0.67400        0.89300
H          1.59100       -2.52300        0.15100
H          2.99300       -3.07200        1.04300
H          2.96800       -3.13700       -0.74200
H          6.33200       -1.28700       -2.25500
H          6.44600       -3.02800       -2.37600
H          7.92500       -2.06500       -2.21600
H          8.60100       -1.22400        0.26000
H          7.38000       -1.41400        1.51600
H          7.31900        0.47100       -0.86100
H          7.28400        0.84200        0.87600
H          6.47800        2.58500       -0.17900
H          5.15900        3.25100        0.78100
H          5.05700        3.18200       -1.00400
H          3.09000        3.16900       -0.06600
H          5.74400       -4.12200        0.67000
