19
532-91-2.pdb
C          1.42100        0.58500       -0.42000
O          2.56000       -0.06300        0.13300
C          3.17200       -1.01200       -0.64300
C          2.72900       -1.43800       -1.91500
C          3.43300       -2.41300       -2.63400
C          4.56000       -2.92500       -2.04100
N          5.44800       -3.86200       -2.47900
C          6.41000       -4.01400       -1.50700
O          7.36100       -4.77700       -1.58200
O          6.16000       -3.17700       -0.41100
C          5.00200       -2.52400       -0.80000
C          4.32600       -1.56800       -0.07500
H          1.08100        1.33700        0.29900
H          0.60200       -0.12400       -0.57400
H          1.67400        1.10600       -1.35000
H          1.83400       -1.02300       -2.36900
H          3.09700       -2.74000       -3.61100
H          5.44500       -4.36900       -3.34800
H          4.67600       -1.25300        0.90200
