22
5323-87-5.pdb
C          0.95000       -0.29300       -1.47900
C          2.45900       -0.31200       -1.64400
O          2.99800        0.87300       -1.05100
C          4.35000        1.08300       -1.27300
C          4.78800        2.34500       -1.37600
C          6.22200        2.63600       -1.62300
O          6.59700        3.80300       -1.71100
C          7.16100        1.47300       -1.84500
C          6.73000        0.27000       -1.02300
C          5.27800       -0.10700       -1.30200
H          0.50600       -1.20400       -1.89100
H          0.51600        0.57300       -1.98800
H          0.67900       -0.21500       -0.42200
H          2.71100       -0.35300       -2.71000
H          2.85300       -1.19900       -1.13800
H          4.12500        3.19900       -1.31300
H          8.17000        1.77300       -1.54700
H          7.16900        1.23700       -2.91500
H          6.84400        0.49800        0.04400
H          7.38100       -0.58600       -1.23800
H          4.97300       -0.83900       -0.54500
H          5.20500       -0.59200       -2.28300
