30
5323-47-7.pdb
C          2.48000        0.92100        1.18200
C          2.45300       -0.02100       -0.01500
N          2.90700       -1.37700        0.31600
C          1.89500       -2.42300        0.50300
C          0.64700       -2.05700        1.29000
C          4.29700       -1.59800        0.24600
O          5.09800       -0.67200        0.10000
C          4.88700       -2.96400        0.37000
C          4.32200       -4.10300       -0.21900
C          4.88600       -5.36800       -0.01400
C          6.07800       -5.48700        0.71100
C          6.70900       -4.34600        1.22200
C          6.10900       -3.09200        1.05400
N          6.66900       -6.81100        0.92900
O          6.03200       -7.79700        0.51900
O          7.75900       -6.87800        1.51000
H          2.14000        1.91900        0.88400
H          3.49100        1.02000        1.59000
H          1.83000        0.56800        1.98700
H          3.10200        0.39000       -0.79800
H          1.44900       -0.06600       -0.44800
H          2.34200       -3.27300        1.02200
H          1.59700       -2.74600       -0.50100
H          0.90200       -1.74200        2.30600
H         -0.00200       -2.93700        1.36200
H          0.06800       -1.26400        0.81100
H          3.43500       -4.03000       -0.83900
H          4.38600       -6.24200       -0.42800
H          7.65900       -4.41300        1.75100
H          6.60200       -2.20500        1.45400
