22
53266-94-7.pdb
C          1.32300       -0.86900        0.07600
C          2.50300       -0.04900       -0.41000
O          3.43700       -0.95000       -1.01900
C          4.37700       -1.48800       -0.18900
O          4.61600       -1.10400        0.94800
C          4.98200       -2.71000       -0.82900
C          6.46800       -2.66400       -0.89600
C          7.35500       -2.58400        0.16000
S          8.96400       -2.62800       -0.42600
C          8.36900       -2.74800       -2.03000
N          9.19400       -2.83800       -3.08400
N          7.06600       -2.77100       -2.14400
H          0.55700       -0.23600        0.52900
H          1.64600       -1.61600        0.81000
H          0.87900       -1.42400       -0.75800
H          2.95500        0.53100        0.40300
H          2.17800        0.66000       -1.17800
H          4.57100       -2.83800       -1.83800
H          4.65100       -3.57900       -0.24700
H          7.14100       -2.50400        1.21700
H         10.13700       -3.16600       -2.92100
H          8.77100       -3.17800       -3.94000
