16
533-30-2.pdb
N          1.02000        0.07300       -0.09000
C          2.40900        0.04600        0.08600
C          3.13700        1.23500        0.05900
C          4.53700        1.23200        0.10100
C          5.23200        0.00800        0.12300
N          6.60800       -0.14600        0.15100
C          6.90400       -1.42600        0.13400
S          5.58400       -2.51500        0.09400
C          4.49500       -1.17800        0.09300
C          3.08900       -1.17800        0.05500
H          0.57700        0.92600        0.24000
H          0.54200       -0.76000        0.24000
H          2.62000        2.19100        0.00500
H          5.09300        2.16400        0.09800
H          7.92700       -1.78000        0.14300
H          2.54600       -2.11600        0.00000
