53
533-87-9.pdb
O          0.92300        0.00300       -0.10300
C          2.34200        0.01600       -0.06000
C          2.85800        0.81900       -1.23900
C          4.37800        0.86100       -1.23700
C          4.89700        1.66700       -2.41800
C          6.41700        1.69700       -2.39800
C          6.94200        2.50300       -3.57600
C          8.46700        2.54600       -3.56900
O          8.99000        1.22100       -3.65600
C          8.98700        3.41400       -4.72300
O          8.49100        4.74800       -4.60800
C         10.51200        3.42200       -4.74200
C         11.03900        4.27200       -5.88700
C         12.55900        4.25900       -5.89000
C         13.07600        5.11400       -7.03500
C         14.59900        5.12100       -7.05600
C         15.10400        5.98200       -8.20900
C         16.63100        6.00500       -8.25400
C         17.13700        6.85400       -9.39100
O         18.48700        6.89700       -9.46100
O         16.43500        7.45900      -10.19000
H          0.62200       -0.51700        0.66100
H          2.70400       -1.01600       -0.10400
H          2.66000        0.46500        0.88600
H          2.44800        1.83700       -1.20200
H          2.49000        0.38100       -2.17600
H          4.77800       -0.15900       -1.28400
H          4.73700        1.30600       -0.30100
H          4.50400        2.69100       -2.37600
H          4.54700        1.22400       -3.35800
H          6.80500        0.67200       -2.43700
H          6.77000        2.14300       -1.46000
H          6.53200        3.52000       -3.53300
H          6.59000        2.04600       -4.51000
H          8.80400        2.97200       -2.61600
H          8.65400        0.82200       -4.47700
H          8.62500        3.00900       -5.67600
H          8.85300        5.13200       -3.79100
H         10.89500        2.40000       -4.84300
H         10.89200        3.82300       -3.79400
H         10.68000        5.30400       -5.79100
H         10.65800        3.88400       -6.84100
H         12.92300        3.23100       -5.99200
H         12.93300        4.64500       -4.93300
H         12.70200        6.13900       -6.92600
H         12.69100        4.72800       -7.98400
H         14.97100        4.09500       -7.16400
H         14.98000        5.50800       -6.10400
H         14.71600        7.00300       -8.10000
H         14.70500        5.59600       -9.15600
H         17.00700        4.98500       -8.38800
H         17.01700        6.41400       -7.31600
H         18.94200        6.37800       -8.77300
