37
53308-83-1.pdb
C          7.92700        7.10100       -1.09200
N          8.08100        5.91700       -0.27000
C          7.05100        5.43900        0.32600
N          5.78100        5.92600        0.31200
N          7.08600        4.33200        1.11300
C          8.28600        3.52100        1.22600
C          8.01100        2.30800        2.12000
C          9.24100        1.42300        2.37100
C         10.42000        2.13700        3.04900
N         11.58900        1.23600        3.10300
C         10.02600        2.65000        4.44800
O         10.36600        1.81300        5.45700
O          9.42900        3.69600        4.65100
C          1.15700        0.03700        0.00000
C          2.65500        0.09000        0.06700
O          3.26300       -1.05900       -0.29700
O          3.28100        1.07800        0.41900
H          8.85900        7.28100       -1.64400
H          7.73500        7.98800       -0.47900
H          7.13100        6.98700       -1.83700
H          5.71600        6.88400       -0.00000
H          5.31800        5.80500        1.20300
H          6.22100        3.79900        1.10700
H          9.08400        4.13900        1.65000
H          8.61000        3.17900        0.23600
H          7.23400        1.69100        1.65000
H          7.58600        2.63800        3.07600
H          9.56800        1.00400        1.40900
H          8.92300        0.57200        2.98800
H         10.74100        3.00300        2.46500
H         11.40700        0.29400        3.43100
H         12.38200        1.67300        3.57000
H         10.83700        1.03400        5.11400
H          0.79900       -0.95300       -0.29400
H          0.80200        0.76400       -0.73500
H          0.74800        0.26500        0.98900
H          2.65400       -1.77100       -0.56700
