25
5334-30-5.pdb
N          1.10500        0.12900        0.23300
C          2.48500        0.04000        0.17300
N          3.17600        1.19500        0.21700
C          4.52000        1.13700        0.18000
N          5.29600        0.04700        0.10200
C          4.57600       -1.09400        0.05200
N          5.03400       -2.41000       -0.02100
N          3.98700       -3.29200       -0.11000
C          2.89900       -2.52800       -0.03000
C          3.19100       -1.16000        0.06900
C          6.37600       -2.90400       -0.00400
C          7.47500       -2.05100        0.16100
C          8.77400       -2.56900        0.18500
C          8.98800       -3.93700        0.04300
C          7.90400       -4.79500       -0.12000
C          6.60300       -4.28400       -0.14200
H          0.78500        1.07200        0.04000
H          0.57600       -0.62500       -0.18000
H          5.03800        2.09100        0.21700
H          1.92700       -3.00400       -0.05600
H          7.36600       -0.97900        0.28600
H          9.61900       -1.89700        0.31800
H         10.00000       -4.33400        0.06200
H          8.06800       -5.86400       -0.23000
H          5.77500       -4.98000       -0.26900
