14
5334-40-7.pdb
O          1.22400       -0.16600        0.55900
C          2.37400       -0.11300       -0.14000
O          2.85100       -1.11700       -0.65000
C          2.98600        1.18100       -0.26400
N          4.12900        1.27900       -1.03100
N          4.63800        2.51600       -1.12200
C          3.81300        3.25000       -0.37700
C          2.77600        2.47800        0.18600
N          1.75300        2.99100        1.04100
O          0.90100        2.18500        1.43700
O          1.79500        4.19400        1.31600
H          0.89100        0.66400        0.96300
H          4.59500        0.51700       -1.52000
H          4.00100        4.31300       -0.27400
