26
5336-75-4.pdb
C          0.99000        0.22800        0.29900
C          2.50300        0.15200        0.12700
N          2.95600       -0.28100       -1.21100
C          2.40700        0.52800       -2.31500
C          2.87000        1.98300       -2.38100
C          4.42400       -0.36800       -1.29100
C          5.05900       -1.35800       -0.30800
C          4.54500       -2.78500       -0.48300
C          5.18600       -3.67200        0.57300
N          5.71800       -4.40700        1.44800
H          0.74400        0.31200        1.36400
H          0.49900       -0.67200       -0.08400
H          0.56900        1.10200       -0.20600
H          2.83900       -0.58000        0.86900
H          2.95100        1.11300        0.40800
H          1.31200        0.50100       -2.28500
H          2.66500        0.04100       -3.26500
H          2.80100        2.48600       -1.41300
H          2.24100        2.54000       -3.08500
H          3.90300        2.05300       -2.73500
H          4.88100        0.61500       -1.12400
H          4.70800       -0.68200       -2.30300
H          4.91900       -1.02100        0.72800
H          6.14700       -1.34700       -0.46600
H          4.80300       -3.16600       -1.47700
H          3.45800       -2.84100       -0.36800
