19
5337-03-1.pdb
O          2.18100        0.14700       -1.37300
C          2.43700       -0.00900       -0.05700
O          2.03200        0.78500        0.77900
C          3.24900       -1.23600        0.29700
C          4.62100       -1.22600       -0.38100
C          5.36100       -2.52800       -0.11200
O          4.55900       -3.63900       -0.51000
C          3.35800       -3.73900        0.25500
C          2.47600       -2.52400        0.00300
H          2.54100       -0.55200       -1.95000
H          3.41800       -1.19100        1.38300
H          5.21300       -0.37200       -0.03500
H          4.50400       -1.11400       -1.46500
H          5.63300       -2.62800        0.94500
H          6.28600       -2.55700       -0.69700
H          3.60500       -3.84400        1.31800
H          2.83700       -4.65000       -0.05600
H          1.57000       -2.57800        0.61600
H          2.15300       -2.53400       -1.04500
