24
53399-81-8.pdb
C          2.15000        0.79700       -0.12900
C          2.83500       -0.42900        0.45000
O          3.31600       -1.28200       -0.59700
C          4.50200       -0.90400       -1.15100
O          5.12100        0.11000       -0.85300
C          4.94000       -1.90000       -2.20400
C          4.37100       -1.45600       -3.55000
C          6.47400       -1.99000       -2.25700
C          7.07800       -2.50500       -0.97700
C          7.81700       -3.61800       -0.88400
H          1.77900        1.44400        0.66800
H          1.31100        0.49900       -0.76600
H          2.83300        1.37600       -0.75700
H          2.11600       -1.01000        1.03600
H          3.65100       -0.15100        1.12900
H          4.53700       -2.88700       -1.94600
H          4.72600       -0.45500       -3.82000
H          3.27700       -1.41700       -3.51800
H          4.66200       -2.14700       -4.34700
H          6.90600       -1.00200       -2.46300
H          6.76600       -2.63700       -3.09500
H          6.92600       -1.90700       -0.08100
H          8.02800       -4.24100       -1.74700
H          8.24100       -3.92100        0.07000
