14
534-13-4.pdb
C          1.22900       -0.43000        0.17100
N          2.58400       -0.07800       -0.20800
C          3.13600       -0.25100       -1.46400
S          2.27700       -0.71400       -2.81900
N          4.49400       -0.00300       -1.42500
C          5.44900       -0.22700       -2.49300
H          1.07200       -0.12600        1.20900
H          1.10700       -1.51200        0.08300
H          0.50900        0.08000       -0.47500
H          3.14200        0.38700        0.49000
H          4.89800        0.10600       -0.50800
H          4.98000       -0.31500       -3.47400
H          5.99500       -1.14700       -2.26700
H          6.15300        0.61300       -2.49900
