30
5340-36-3.pdb
C          0.90300       -0.06500        0.04600
C          2.42100       -0.01300        0.04400
C          2.96200        0.61900       -1.24000
C          4.48800        0.65000       -1.20300
C          5.09500        1.27600       -2.46700
C          6.64500        1.32500       -2.46500
C          7.17900        2.14600       -1.28400
O          7.15000       -0.01000       -2.36000
C          7.14100        1.89500       -3.81200
C          8.66100        1.99100       -3.93000
H          0.54400       -0.52500        0.97200
H          0.53100       -0.65500       -0.79500
H          0.47900        0.94200       -0.02100
H          2.81600       -1.02900        0.15300
H          2.76100        0.56100        0.91400
H          2.57300        1.63900       -1.34300
H          2.62000        0.04800       -2.11100
H          4.85900       -0.37300       -1.08000
H          4.79500        1.21800       -0.32000
H          4.69600        2.29100       -2.59500
H          4.75600        0.68700       -3.33000
H          6.88200        1.71600       -0.32200
H          6.82800        3.18100       -1.32900
H          8.27400        2.14600       -1.25700
H          6.93800       -0.35100       -1.47400
H          6.71000        2.88900       -3.98200
H          6.79300        1.24800       -4.62700
H          9.08000        2.70000       -3.21400
H          8.93700        2.34200       -4.93200
H          9.13600        1.01600       -3.77600
