25
5341-58-2.pdb
N          0.94200       -0.21300       -0.83700
N          2.34500       -0.15000       -0.87900
C          3.01100        1.05900       -0.73100
O          2.43100        2.14000       -0.63200
C          4.51100        0.99600       -0.72100
C          5.20900        2.19400       -0.48300
C          6.61600        2.24000       -0.49600
C          7.31800        3.43500       -0.26600
C          8.71400        3.46100       -0.29400
C          9.42700        2.29400       -0.55000
C          8.74700        1.09700       -0.77300
C          7.34200        1.05600       -0.74800
C          6.65000       -0.14300       -0.97100
C          5.25000       -0.17200       -0.95700
O          4.62200       -1.37000       -1.18800
H          0.62500       -0.96700       -1.44700
H          0.59000        0.65700       -1.25300
H          2.90100       -1.00600       -0.92500
H          4.64500        3.10600       -0.28900
H          6.77900        4.35800       -0.06400
H          9.24300        4.39500       -0.11900
H         10.51300        2.31500       -0.57700
H          9.32300        0.19700       -0.96900
H          7.21300       -1.05300       -1.16000
H          5.29500       -2.05300       -1.35700
