16
5345-47-1.pdb
N          2.30100       -0.15300       -0.22300
C          0.91700       -0.15100       -0.06300
N          0.34700        1.07400       -0.09600
C         -1.00200        1.14500       -0.03600
C         -1.82800        0.03900        0.04000
C         -1.23600       -1.22000        0.07500
C          0.16000       -1.32400        0.01200
C          0.83600       -2.63400        0.13600
O          0.17600       -3.65800       -0.44500
O          1.88400       -2.78000        0.74500
H          2.64200        0.80100       -0.13100
H          2.75700       -0.81300        0.40400
H         -1.41100        2.15200       -0.04900
H         -2.90500        0.15600        0.08800
H         -1.86500       -2.09800        0.18600
H         -0.55400       -3.39800       -1.03700
