26
53498-32-1.pdb
C          3.00900       -0.13200        1.53100
C          2.59400       -0.00500        0.06300
C          1.06500       -0.03400       -0.03300
C          3.15200        1.27700       -0.58400
C          4.65400        1.30600       -0.61700
S          5.52700        2.53600        0.20100
C          7.00300        1.83900       -0.32500
C          8.31200        2.44400        0.04500
C          6.74000        0.71500       -1.09000
C          7.72500       -0.18500       -1.74500
N          5.39600        0.42300       -1.25400
H          2.60700       -1.05300        1.96700
H          2.63600        0.71300        2.12000
H          4.09700       -0.17000        1.63800
H          2.98000       -0.87900       -0.47700
H          0.61900        0.85000        0.43800
H          0.66000       -0.92000        0.46900
H          0.73700       -0.06400       -1.07700
H          2.75700        2.15900       -0.06400
H          2.79600        1.34400       -1.62100
H          8.20300        3.32500        0.68600
H          8.85400        2.75200       -0.85600
H          8.92800        1.71500        0.58200
H          8.75700        0.12200       -1.55100
H          7.56800       -0.18300       -2.82900
H          7.60100       -1.20900       -1.37900
