19
53515-19-8.pdb
C          2.51400        0.11500        0.02100
C          1.01600       -0.02200       -0.01100
C          0.26600        1.17400       -0.00500
C         -1.12900        1.15700       -0.01000
C         -1.80200       -0.05400       -0.03500
C         -1.08200       -1.24900       -0.05800
C          0.33000       -1.25800       -0.03800
C          0.98200       -2.60600       -0.04700
N          0.37200       -3.58500        0.70600
S          2.33000       -3.07200       -0.92100
H          2.81600        1.15900        0.17300
H          2.95300       -0.19600       -0.93000
H          2.93800       -0.45700        0.85100
H          0.77100        2.13800        0.00900
H         -1.68300        2.09200        0.00100
H         -2.89000       -0.07300       -0.04800
H         -1.64100       -2.18000       -0.11300
H         -0.43800       -3.42300        1.29300
H          0.76700       -4.51700        0.70000
