34
5355-42-0.pdb
C         -0.71700        1.47100        1.87400
C         -0.01500        0.24500        2.43800
C          1.38100        0.07800        1.83300
N          1.33100       -0.00100        0.36300
C          0.66500        1.18400       -0.21000
C         -0.74000        1.40200        0.35400
C          2.68500       -0.09600       -0.21900
C          3.41200       -1.33900        0.19600
C          3.03000       -2.64800       -0.03800
N          4.01500       -3.47700        0.42400
C          5.05500       -2.73900        0.94000
C          6.28700       -3.15500        1.46300
C          7.16100       -2.16800        1.92900
C          6.80600       -0.82300        1.89400
C          5.57400       -0.42500        1.36300
C          4.68600       -1.39700        0.85600
H         -0.19000        2.37800        2.19500
H         -1.73900        1.53700        2.26500
H         -0.61600       -0.65000        2.23100
H          0.06400        0.33200        3.52800
H          1.80900       -0.83900        2.25200
H          2.01700        0.91300        2.15900
H          0.57700        1.06700       -1.29600
H          1.26400        2.08800       -0.02800
H         -1.39600        0.58500        0.03300
H         -1.16000        2.32900       -0.05100
H          3.27600        0.79400        0.03100
H          2.60800       -0.12400       -1.31500
H          2.14000       -3.05000       -0.50500
H          3.99900       -4.48500        0.37400
H          6.56400       -4.20300        1.49800
H          8.13100       -2.45700        2.32600
H          7.49500       -0.07100        2.27300
H          5.31300        0.62900        1.33800
