18
53562-86-0.pdb
C          0.97300       -0.35200        0.22200
O          2.39800       -0.39800        0.30800
C          2.94100        0.58100        1.08500
O          2.30900        1.46500        1.64600
C          4.43700        0.41700        1.14100
C          5.02300        0.93900        2.44900
C          4.51900        0.19100        3.67900
O          6.44800        0.80900        2.39300
H          0.65600       -1.08300       -0.52700
H          0.62700        0.63700       -0.09300
H          0.53300       -0.62900        1.18500
H          4.87200        0.95400        0.29000
H          4.70000       -0.64100        1.01800
H          4.80400        2.00600        2.56200
H          4.75800       -0.87700        3.61600
H          3.43900        0.29800        3.81000
H          5.01200        0.57000        4.58100
H          6.67300       -0.13700        2.45100
