17
536-75-4.pdb
C          3.59400        0.00200        1.03300
C          2.46600        0.06800        0.01600
C          2.96000       -0.12200       -1.39300
C          3.05900       -1.39900       -1.94900
C          3.50500       -1.52200       -3.25700
N          3.86300       -0.47600       -4.03100
C          3.77200        0.74900       -3.46900
C          3.33600        0.97400       -2.17300
H          3.19800        0.14000        2.04500
H          4.33900        0.78300        0.85100
H          4.10500       -0.96500        0.99800
H          1.94900        1.03300        0.09600
H          1.71400       -0.69700        0.24600
H          2.79100       -2.28500       -1.38300
H          3.58400       -2.49500       -3.73000
H          4.06400        1.57500       -4.11200
H          3.28700        1.98700       -1.78600
