17
536-78-7.pdb
C          1.11500        0.55800       -0.29700
C          2.50100        0.04600        0.06300
C          2.94900       -1.04600       -0.86700
C          3.64700       -0.76000       -2.04400
C          4.01100       -1.79600       -2.89800
C          3.66100       -3.09000       -2.54800
N          2.98900       -3.40700       -1.42200
C          2.64800       -2.38100       -0.61000
H          0.82000        1.36300        0.38400
H          0.36600       -0.23800       -0.22600
H          1.09000        0.95300       -1.31900
H          2.50300       -0.32400        1.09500
H          3.22100        0.87200        0.03500
H          3.90400        0.26500       -2.29900
H          4.55100       -1.59900       -3.81700
H          3.91700       -3.93000       -3.18600
H          2.10200       -2.67300        0.28300
