21
536-33-4.pdb
C          2.39100        0.44600        1.40400
C          2.56600       -0.11100       -0.00000
C          3.11600       -1.51500        0.00600
C          4.48900       -1.73600       -0.01000
C          4.96800       -3.05000       -0.00900
C          4.04900       -4.10000        0.01900
C          2.70100       -3.78900        0.04100
N          2.22000       -2.52900        0.03500
C          6.43300       -3.33200       -0.02500
N          6.83800       -4.49400       -0.63100
S          7.61900       -2.34700        0.62500
H          1.99600        1.46700        1.35800
H          3.34400        0.47700        1.94300
H          1.69100       -0.16000        1.98800
H          3.22600        0.54300       -0.58200
H          1.59700       -0.11000       -0.51400
H          5.16600       -0.88700       -0.03400
H          4.35700       -5.13800        0.05000
H          1.94600       -4.57000        0.07000
H          6.22500       -5.10700       -1.15400
H          7.83400       -4.68000       -0.69000
