25
5368-28-5.pdb
O          2.19900        0.04500       -0.02500
C          0.96300        0.04700       -0.01100
N          0.31600        1.25400       -0.08400
C         -1.10800        1.36400        0.12000
C         -1.83600        0.15800       -0.47100
N         -1.35400       -1.05800        0.17700
C          0.10800       -1.26200       -0.00200
C          0.60400       -2.21300        1.07500
C          1.17900       -3.44600        0.73800
C          1.68800       -4.28400        1.73200
C          1.62500       -3.90200        3.07100
C          1.03600       -2.69100        3.42400
C          0.52300       -1.85400        2.43300
H          0.91500        2.06500        0.00100
H         -1.44600        2.29400       -0.34500
H         -1.28200        1.43300        1.20000
H         -1.68100        0.10200       -1.55800
H         -2.91200        0.25900       -0.29400
H         -1.83600       -1.87900       -0.18700
H          0.26000       -1.70600       -0.99500
H          1.25000       -3.75600       -0.30200
H          2.14700       -5.23000        1.46100
H          2.04200       -4.54600        3.84200
H          0.98300       -2.39000        4.46600
H          0.06700       -0.90800        2.71900
