24
537-98-4.pdb
C          0.96300       -0.11300        0.10100
O          2.38300       -0.14200        0.08200
C          3.03700        1.06200        0.06600
C          2.40300        2.31600        0.06900
C          3.14500        3.50900        0.03700
C          2.50900        4.84900        0.05500
C          1.30800        5.11700       -0.48100
C          0.57800        6.40500       -0.50100
O          1.32600        7.50600       -0.32300
O         -0.62200        6.44700       -0.71000
C          4.54500        3.42400        0.03400
C          5.19000        2.18200        0.03500
C          4.43600        1.01100        0.05000
O          5.06200       -0.20600        0.05200
H          0.60100       -1.14500        0.08900
H          0.56600        0.38800       -0.78900
H          0.59400        0.35800        1.01800
H          1.32200        2.37200        0.10500
H          3.09400        5.61400        0.55500
H          0.71800        4.33300       -0.95300
H          2.28100        7.36200       -0.22800
H          5.15500        4.32400        0.01900
H          6.27600        2.14800        0.01800
H          6.02300       -0.07600        0.07300
