26
5372-81-6.pdb
C          1.24500        0.88200       -0.13800
O          2.67400        0.88300       -0.12300
C          3.21000        0.74000        1.11300
O          2.58400        0.63100        2.15600
C          4.69700        0.73600        1.04800
C          5.39600        0.92500       -0.14800
C          6.79200        0.88800       -0.15100
C          7.50600        0.66400        1.04000
C          6.81500        0.52200        2.26100
N          7.45300        0.13700        3.45500
C          5.41100        0.52100        2.23700
C          8.99700        0.63600        1.00800
O          9.71100        0.93600        1.95100
O          9.41800        0.22100       -0.21600
C         10.83600        0.16200       -0.37100
H          0.91700        0.91000       -1.18000
H          0.86100        1.77100        0.37200
H          0.85300       -0.03000        0.32300
H          4.87200        1.09100       -1.08600
H          7.31800        1.03200       -1.09300
H          8.43400        0.42900        3.49400
H          6.94900        0.37700        4.30300
H          4.86000        0.34300        3.16000
H         11.04800       -0.21200       -1.37800
H         11.27900       -0.52700        0.35400
H         11.27000        1.16200       -0.27700
