32
5379-88-4.pdb
C          0.85100        0.99200        0.23100
C         -0.67200        1.04500        0.43400
N         -1.40700       -0.01100       -0.30100
C         -0.78500       -1.30600        0.06400
C          0.74700       -1.33800       -0.10900
O          1.38100       -0.28200        0.62500
C         -1.40800        0.16900       -1.76700
C         -2.12700        1.42400       -2.18200
C         -3.49100        1.56300       -2.36900
N         -3.75000        2.85400       -2.73900
C         -2.58400        3.57900       -2.78800
C         -2.37600        4.93500       -3.07400
C         -1.06200        5.41300       -3.05500
C          0.00300        4.55800       -2.79700
C         -0.22300        3.20200       -2.53500
C         -1.54100        2.70000       -2.49400
H          1.33400        1.75800        0.84600
H          1.13900        1.17800       -0.80500
H         -1.06000        2.04300        0.20700
H         -0.87700        0.89600        1.50300
H         -1.24600       -2.12800       -0.49600
H         -1.01300       -1.49300        1.12200
H          1.03900       -1.27000       -1.16300
H          1.14300       -2.28200        0.27700
H         -1.94400       -0.67500       -2.22000
H         -0.40200        0.16300       -2.19400
H         -4.29600        0.84800       -2.26200
H         -4.66500        3.23000       -2.94000
H         -3.20400        5.60100       -3.29000
H         -0.87200        6.46600       -3.25100
H          1.02000        4.94300       -2.79700
H          0.62500        2.55200       -2.35700
