25
538-51-2.pdb
C          1.35400       -0.20700        0.05400
C          0.49600       -1.30600        0.01900
C         -0.88600       -1.11000       -0.02600
C         -1.40500        0.18700       -0.02900
C         -0.54700        1.29000        0.01700
C          0.83500        1.08900        0.05400
C         -2.86100        0.42100       -0.12600
N         -3.68800       -0.54700       -0.35700
C         -5.05500       -0.27000       -0.53400
C         -5.53300        0.85000       -1.22700
C         -6.90100        1.02300       -1.45600
C         -7.80800        0.06600       -1.00900
C         -7.34900       -1.05800       -0.32600
C         -5.98000       -1.22000       -0.09100
H          2.43000       -0.36100        0.07500
H          0.90100       -2.31500        0.01700
H         -1.55100       -1.96900       -0.06400
H         -0.93700        2.30300        0.00400
H          1.50900        1.94200        0.07200
H         -3.19300        1.46900       -0.01600
H         -4.84200        1.58800       -1.62200
H         -7.25300        1.89500       -2.00000
H         -8.87000        0.18800       -1.20700
H         -8.05000       -1.81700        0.00800
H         -5.62500       -2.10900        0.42400
