27
538-68-1.pdb
C          1.00200        0.04400       -0.09300
C          2.52100        0.01700       -0.02300
C          3.08200        1.27600        0.63900
C          4.61200        1.23600        0.70300
C          5.17500        2.49200        1.37100
C          6.68400        2.49600        1.41000
C          7.41900        3.02900        0.34300
C          8.81500        3.05000        0.38500
C          9.48800        2.53400        1.49000
C          8.76800        1.98800        2.55000
C          7.37100        1.96500        2.51000
H          0.63000       -0.86800       -0.57100
H          0.64900        0.90000       -0.67700
H          0.56300        0.10500        0.90800
H          2.92400       -0.08000       -1.03800
H          2.83800       -0.86900        0.53800
H          2.67300        1.37300        1.65200
H          2.76200        2.16100        0.07600
H          5.01700        1.13900       -0.31200
H          4.93300        0.34500        1.25800
H          4.78600        2.58000        2.39400
H          4.82800        3.38800        0.84100
H          6.90800        3.43600       -0.52600
H          9.37600        3.47300       -0.44400
H         10.57400        2.55800        1.52500
H          9.29200        1.58200        3.41100
H          6.82400        1.53600        3.34500
