20
53833-30-0.pdb
C          3.71500        0.19600        0.91000
C          2.75600       -0.24700       -0.18200
C          3.12700       -1.57400       -0.73000
O          2.55500       -2.66300       -0.13100
C          3.05300       -3.72600       -0.82800
C          2.61500       -5.07200       -0.42100
C          3.89700       -3.23800       -1.80300
C          4.68300       -3.97200       -2.81600
N          3.93400       -1.86400       -1.73100
H          3.42400        1.17700        1.29600
H          4.74000        0.27000        0.53000
H          3.71800       -0.51200        1.74600
H          2.75500        0.49300       -0.99000
H          1.73700       -0.28200        0.22000
H          1.92900       -5.02800        0.43000
H          3.47600       -5.68300       -0.13400
H          2.10000       -5.56900       -1.24800
H          4.50700       -5.05100       -2.75200
H          5.75200       -3.79400       -2.67000
H          4.41100       -3.64500       -3.82400
