22
539-88-8.pdb
C          3.35200        0.99500       -1.68600
C          2.67200        0.51900       -0.41500
O          3.15500        1.26000        0.71800
C          4.34600        0.84100        1.22500
O          4.99600       -0.10900        0.80900
C          4.75700        1.70400        2.38800
C          6.27800        1.76900        2.48200
C          6.74600        2.62000        3.64300
C          8.23400        2.75500        3.83300
O          5.96100        3.18300        4.40500
H          2.98300        0.44200       -2.55400
H          4.43700        0.86800       -1.62800
H          3.16700        2.06300       -1.84200
H          2.80800       -0.55800       -0.26400
H          1.59400        0.70100       -0.48400
H          4.32100        1.28200        3.29900
H          4.35500        2.71400        2.25100
H          6.69100        2.19200        1.55900
H          6.69500        0.76400        2.61400
H          8.77500        2.19900        3.06300
H          8.51200        2.35600        4.81200
H          8.51300        3.81000        3.76200
