14
539-80-0.pdb
O         -2.44300       -0.02400        0.01400
C         -1.21200       -0.00900       -0.01600
C         -0.52000        1.29500       -0.04200
C          0.78400        1.58200       -0.02500
C          1.91300        0.69700        0.03800
C          1.93100       -0.63900        0.03400
C          0.82400       -1.55100       -0.02900
C         -0.48800       -1.29600       -0.04300
H         -1.22300        2.12500       -0.08100
H          1.05500        2.63800       -0.05100
H          2.87600        1.20700        0.09200
H          2.90600       -1.12500        0.08300
H          1.11900       -2.60000       -0.05400
H         -1.17100       -2.14200       -0.07900
