27
5392-40-5.pdb
C          0.89300        0.95500       -1.31800
C          2.39500        1.03100       -1.35500
C          3.00700        2.39200       -1.54300
C          3.13600       -0.08900       -1.23800
C          4.64200       -0.15100       -1.20700
C          5.24300       -0.33200       -2.60700
C          6.76100       -0.37700       -2.60800
C          7.47400        0.86800       -2.15000
C          7.40400       -1.47700       -3.04500
C          8.87700       -1.61200       -3.11400
O          9.40300       -2.63700       -3.53100
H          0.43100        1.93800       -1.45400
H          0.55300        0.56700       -0.35200
H          0.51700        0.30500       -2.11500
H          2.24600        3.17000       -1.65600
H          3.62300        2.41300       -2.44800
H          3.62500        2.66200       -0.68100
H          2.62900       -1.04700       -1.12700
H          4.94000       -0.98600       -0.56100
H          5.03900        0.74900       -0.72500
H          4.92500        0.48700       -3.26500
H          4.83400       -1.24900       -3.05200
H          6.77400        1.66400       -1.87700
H          8.11000        1.26700       -2.94800
H          8.09000        0.65700       -1.27000
H          6.86400       -2.35400       -3.38900
H          9.47300       -0.74800       -2.78100
