22
53957-33-8.pdb
C          2.89800       -0.04500        0.00800
C          1.40000       -0.00400       -0.01500
C          0.71300        1.20900       -0.01400
C         -0.68300        1.22700       -0.03100
C         -1.42300        0.03600       -0.04700
C         -2.92600        0.12300       -0.05600
C         -0.74400       -1.19900       -0.03400
C         -1.45100       -2.53200        0.02000
O         -1.09900       -3.33600       -1.09800
C          0.66600       -1.19800       -0.02400
H          3.32800        0.96200        0.00900
H          3.27500       -0.56900       -0.87700
H          3.24800       -0.56100        0.90800
H          1.25600        2.15100        0.00400
H         -1.19000        2.19000       -0.02600
H         -3.26800        1.15900       -0.15700
H         -3.33400       -0.27300        0.87900
H         -3.33700       -0.43400       -0.90400
H         -2.54000       -2.43600        0.02500
H         -1.16700       -3.06200        0.93500
H         -1.29400       -2.80800       -1.89100
H          1.19600       -2.15100       -0.01600
