27
5396-71-4.pdb
C          2.54400       -1.21200       -1.94500
C          2.64900       -0.32200       -0.72000
O          3.19000        0.94000       -1.13000
C          4.54300        1.01600       -1.13000
O          5.32700        0.22300       -0.63800
C          4.91200        2.18200       -1.95500
C          6.19800        2.40200       -2.26500
C          6.64100        3.48200       -3.15500
C          7.88000        4.09200       -2.91600
C          8.35000        5.11200       -3.75000
C          7.59200        5.52600       -4.84400
C          6.36600        4.90200       -5.10400
C          5.89200        3.87900       -4.27200
N          5.56900        5.32000       -6.26300
O          6.02300        6.21900       -6.98300
O          4.48400        4.75100       -6.45200
H          2.12000       -2.18600       -1.69100
H          3.52700       -1.36200       -2.40300
H          1.91500       -0.73700       -2.70600
H          3.25000       -0.79000        0.06800
H          1.65300       -0.13500       -0.30500
H          4.09900        2.79300       -2.32600
H          6.97800        1.76200       -1.85600
H          8.49000        3.78300       -2.06900
H          9.30800        5.58200       -3.54200
H          7.96900        6.32300       -5.48100
H          4.95000        3.38500       -4.49900
