22
54-06-8.pdb
C          1.01400        0.05800       -0.08900
N          2.46000        0.07500       -0.19000
C          3.19800       -1.18200       -0.02800
C          4.68600       -0.76400       -0.10000
O          5.28700       -1.19300       -1.31900
C          4.65600        0.74400       -0.07300
C          5.70600        1.56700       -0.04000
C          5.46300        3.02600       -0.04000
O          6.39700        3.81400       -0.03500
C          4.00700        3.50400       -0.04800
O          3.72400        4.69300       -0.01800
C          2.94300        2.47600       -0.10100
C          3.27500        1.18200       -0.12100
H          0.62600       -0.96600       -0.10200
H          0.57000        0.59300       -0.93400
H          0.68200        0.53200        0.84100
H          2.93200       -1.89200       -0.81900
H          2.96900       -1.62600        0.94900
H          5.25200       -1.18500        0.73700
H          4.78300       -0.77600       -2.04100
H          6.73300        1.22800       -0.03200
H          1.92300        2.83200       -0.12800
