27
54-12-6.pdb
N          1.25100        0.06900       -0.40600
C          2.70700        0.07000       -0.01800
C          2.95300        0.63800        1.38800
C          2.50700        2.06100        1.53600
C          1.25600        2.49400        1.92800
N          1.25200        3.86400        1.92700
C          2.48700        4.34100        1.55600
C          2.93900        5.65800        1.42500
C          4.27000        5.85300        1.04400
C          5.11000        4.76900        0.80100
C          4.63700        3.45800        0.92800
C          3.29900        3.23100        1.31000
C          3.21600       -1.37800       -0.06800
O          2.25800       -2.22200       -0.53600
O          4.33200       -1.74800        0.26000
H          1.04000        1.03300       -0.69400
H          0.70400       -0.03100        0.45600
H          3.25500        0.63200       -0.78300
H          4.02000        0.56600        1.63400
H          2.43800        0.01900        2.13600
H          0.36600        1.94800        2.21400
H          0.46600        4.44800        2.17900
H          2.28900        6.50700        1.62100
H          4.65500        6.86400        0.94200
H          6.14400        4.94100        0.51300
H          5.30700        2.62200        0.74000
H          1.48600       -1.64200       -0.76100
