17
54-85-3.pdb
N          1.16500        0.16300        0.19500
N          2.57200        0.11100        0.26000
C          3.18800       -1.00500        0.82100
O          2.58600       -1.93800        1.34300
C          4.67300       -1.01500        0.75300
C          5.40800        0.16700        0.86800
C          6.78600        0.07700        0.82600
N          7.45600       -1.08600        0.67500
C          6.71900       -2.21500        0.58300
C          5.33600       -2.23500        0.61900
H          0.85400        1.11800        0.38300
H          0.80400       -0.40300        0.97500
H          3.10400        0.69800       -0.38000
H          4.93700        1.13100        1.02200
H          7.41000        0.96200        0.92100
H          7.29000       -3.13300        0.47600
H          4.79100       -3.17100        0.54700
