52
540-08-9.pdb
C          1.62000        2.47300        1.66900
C          2.95500        1.85800        1.28300
C          3.48900        2.46400       -0.01400
C          4.83100        1.84700       -0.40600
C          5.34900        2.46500       -1.70400
C          6.68900        1.86600       -2.12100
C          7.17200        2.50300       -3.42200
C          8.51600        1.93500       -3.85400
C          9.01200        2.59100       -5.13100
O          8.24300        3.04100       -5.98000
C         10.51200        2.65700       -5.33200
C         11.12200        1.26200       -5.35100
C         12.63300        1.31400       -5.55500
C         13.21900       -0.09700       -5.54800
C         14.73200       -0.07500       -5.74300
C         15.30000       -1.49400       -5.73800
C         16.81300       -1.48600       -5.93600
C         17.37600       -2.89800       -5.93400
H          1.25200        2.02900        2.59900
H          0.87000        2.30100        0.89000
H          1.71500        3.55300        1.82000
H          2.83400        0.77500        1.16600
H          3.67500        2.02000        2.09300
H          3.60400        3.54800        0.10700
H          2.76200        2.30500       -0.82000
H          4.71700        0.76300       -0.53300
H          5.56100        2.00500        0.39600
H          5.45700        3.54900       -1.57400
H          4.61300        2.30900       -2.50200
H          6.58600        0.78100       -2.25400
H          7.43000        2.02700       -1.32800
H          7.25900        3.58900       -3.29200
H          6.42600        2.33800       -4.21000
H          8.44400        0.85700       -4.03000
H          9.25500        2.10900       -3.06400
H         10.93700        3.26800       -4.52900
H         10.71100        3.17200       -6.27900
H         10.65600        0.66800       -6.14700
H         10.90600        0.74300       -4.40900
H         13.09300        1.90900       -4.75800
H         12.86300        1.80900       -6.50600
H         12.75300       -0.69100       -6.34400
H         12.97900       -0.58900       -4.59800
H         15.19900        0.51300       -4.94400
H         14.97500        0.41800       -6.69300
H         14.82600       -2.08100       -6.53400
H         15.05500       -1.98400       -4.78700
H         17.29000       -0.90500       -5.13900
H         17.06200       -1.00000       -6.88700
H         17.17000       -3.40000       -4.98400
H         18.46100       -2.87300       -6.07700
H         16.94000       -3.49500       -6.74100
