23
540-42-1.pdb
C          1.65800       -1.64800        1.02800
C          2.54200       -0.47400        0.64700
C          3.49100       -0.09000        1.76500
O          3.64400       -0.71500        2.80300
O          4.10300        1.08800        1.45300
C          4.74000        1.77400        2.54100
C          6.27000        1.71700        2.45900
C          6.79700        2.33200        1.16100
C          6.86500        2.45000        3.66400
H          0.93000       -1.84800        0.23600
H          1.10800       -1.44600        1.95300
H          2.25400       -2.55300        1.18300
H          1.90200        0.39300        0.44500
H          3.12200       -0.70900       -0.24700
H          4.39500        1.39500        3.51000
H          4.40300        2.81600        2.48200
H          6.59200        0.66900        2.48500
H          6.47000        3.37200        1.05200
H          6.44900        1.77200        0.28800
H          7.89300        2.32300        1.14500
H          6.55700        3.50200        3.67800
H          7.95900        2.41800        3.64800
H          6.52900        1.99100        4.60100
