17
5401-94-5.pdb
O          1.22500        0.59100        0.33300
N          2.22200       -0.04700       -0.03200
O          2.60800       -1.10500        0.48600
C          3.00500        0.49000       -1.15300
C          2.60200        1.68700       -1.76400
C          3.34000        2.23200       -2.82100
C          4.47900        1.53000       -3.22900
N          5.40500        1.78900       -4.20700
N          6.37500        0.86500       -4.30300
C          6.06200       -0.01700       -3.35100
C          4.89300        0.33800       -2.64300
C          4.14900       -0.20700       -1.58300
H          1.71100        2.21500       -1.42500
H          3.03700        3.16100       -3.29600
H          5.43200        2.58000       -4.84200
H          6.69700       -0.88200       -3.20800
H          4.46500       -1.13600       -1.11600
