16
5402-55-1.pdb
O          0.89000        0.04700       -0.04600
C          2.31200        0.02700        0.01200
C          2.86200        1.25100       -0.71400
C          4.35900        1.32300       -0.66900
S          5.29900        0.56100       -1.88200
C          6.76000        1.11700       -1.19000
C          6.54200        1.85900       -0.05100
C          5.15400        1.97400        0.25300
H          0.57400       -0.76500        0.38600
H          2.66400       -0.90100       -0.45300
H          2.61400        0.02400        1.06500
H          2.43800        2.15700       -0.26200
H          2.50200        1.25600       -1.75000
H          7.70700        0.87700       -1.65300
H          7.33900        2.30400        0.53200
H          4.76000        2.52300        1.10000
