46
5405-58-3.pdb
C          0.90400       -0.01500        0.04900
C          2.42300        0.03200        0.06300
C          2.93200        1.16100        0.95700
C          4.45400        1.19300        0.96200
C          5.00400        2.30600        1.85100
C          6.52300        2.26500        1.79500
O          7.07500        3.30400        2.58800
C          8.50900        3.28600        2.59400
C          9.05600        3.51700        1.18400
O          9.00600        4.31700        3.45000
C          8.56800        4.14500        4.79500
C          9.07000        5.28800        5.67600
C          8.53800        6.62900        5.15200
C          9.01200        7.81400        5.98500
C          8.45700        9.12000        5.42000
C          8.91800       10.31400        6.23700
H          0.55700       -0.83200       -0.59100
H          0.48900        0.92000       -0.33500
H          0.51100       -0.18000        1.05800
H          2.78900        0.17300       -0.96200
H          2.81100       -0.92900        0.41700
H          2.56400        1.02200        1.98100
H          2.54600        2.12300        0.60000
H          4.81800        1.33100       -0.06300
H          4.84200        0.22600        1.30800
H          4.66500        2.19500        2.88700
H          4.65300        3.28700        1.50900
H          6.80400        2.40800        0.75000
H          6.90100        1.29400        2.14100
H          8.87300        2.32300        2.97900
H          8.69500        4.47000        0.78800
H          8.74700        2.74100        0.48800
H         10.15200        3.53900        1.16800
H          8.96100        3.20000        5.19400
H          7.47600        4.12400        4.84700
H         10.16500        5.30800        5.67800
H          8.73800        5.14100        6.71000
H          7.44200        6.60400        5.14800
H          8.85700        6.77300        4.11300
H         10.10700        7.84800        5.99200
H          8.68400        7.69000        7.02400
H          7.36100        9.08800        5.41400
H          8.78200        9.24600        4.38000
H          8.57700       10.23100        7.27400
H          8.51300       11.23900        5.81800
H         10.01000       10.38700        6.23800
