16
54060-30-9.pdb
N          1.16100       -0.11000        0.27400
C          2.53400       -0.13300       -0.00400
C          3.26900        1.05600       -0.00900
C          4.65700        1.03800       -0.16700
C          5.32700       -0.17800       -0.29000
C          4.61100       -1.37300       -0.23400
C          3.22300       -1.34900       -0.05800
C          5.29500       -2.62200       -0.37900
C          5.87200       -3.66500       -0.53300
H          0.70000        0.74100       -0.03200
H          0.66900       -0.94300       -0.03200
H          2.76300        2.01100        0.10800
H          5.21300        1.97100       -0.18700
H          6.40700       -0.18700       -0.41700
H          2.67700       -2.28500        0.02300
H          6.38500       -4.58400       -0.69000
