33
5409-60-9.pdb
C          0.97900        0.26200       -0.30700
C          2.37300       -0.12300        0.12000
O          2.83200       -1.23500       -0.13900
C          3.11700        0.88300        0.97500
C          4.63500        0.88300        0.70800
C          5.04500        1.22200       -0.72600
C          4.32000        2.10700       -1.54100
C          4.73700        2.38300       -2.84600
C          5.88800        1.78900       -3.35400
C          6.62700        0.91900       -2.55800
C          6.21100        0.64000       -1.25500
C          5.33300        1.78600        1.72700
C          6.23600        1.23700        2.65100
C          6.86200        2.04600        3.60300
C          6.59500        3.41200        3.64500
C          5.70600        3.97300        2.73300
C          5.08200        3.16800        1.77900
H          0.60500       -0.45500       -1.04200
H          0.99300        1.25200       -0.77000
H          0.32100        0.26500        0.56500
H          2.91000        0.62300        2.02000
H          2.68300        1.87500        0.81100
H          4.97400       -0.14800        0.88800
H          3.42500        2.60200       -1.17800
H          4.16100        3.06500       -3.46600
H          6.21100        2.00500       -4.36900
H          7.52800        0.45500       -2.95000
H          6.80400       -0.04400       -0.65000
H          6.46100        0.17200        2.63800
H          7.56000        1.60800        4.31200
H          7.08200        4.04100        4.38700
H          5.50000        5.04000        2.75900
H          4.39800        3.63200        1.07300
