35
541-16-2.pdb
C          4.75000        0.83700       -1.26900
C          3.70300       -0.28400       -1.24700
C          2.31300        0.22400       -0.84600
C          3.60000       -0.86200       -2.67000
O          4.14100       -1.37900       -0.39400
C          4.30000       -1.17500        0.94600
O          4.00900       -0.15600        1.55700
C          4.93800       -2.36100        1.60100
C          6.42800       -2.23300        1.57400
O          7.02700       -1.35700        0.96500
O          7.02000       -3.23700        2.28900
C          8.47500       -3.30800        2.32900
C          9.07300       -2.08500        3.03700
C          8.82800       -4.55500        3.16000
C          9.05100       -3.50800        0.92000
H          4.46100        1.63800       -1.95800
H          5.72500        0.44700       -1.58500
H          4.90000        1.28300       -0.28200
H          1.95600        0.99200       -1.54000
H          2.30200        0.66400        0.15300
H          1.59000       -0.59900       -0.83300
H          3.27800       -0.10100       -3.38900
H          2.88600       -1.69200       -2.70700
H          4.56400       -1.26300       -3.00500
H          4.62500       -3.28300        1.10300
H          4.59100       -2.39700        2.64200
H          8.67300       -1.99300        4.05400
H          8.83600       -1.14800        2.52800
H         10.16400       -2.15700        3.10200
H          8.43600       -4.47600        4.18000
H          9.91300       -4.69900        3.22100
H          8.38600       -5.45800        2.72300
H          8.86000       -2.65500        0.26400
H          8.58900       -4.37800        0.43900
H         10.13400       -3.65800        0.94800
