14
541-58-2.pdb
C          2.05500        1.47500        0.01500
C          0.82100        0.64200        0.00700
S          0.92200       -1.07200        0.01200
C         -0.78800       -1.16000        0.01400
C         -1.33000        0.11000        0.00600
C         -2.77200        0.46200        0.00500
N         -0.39900        1.13600       -0.00000
H          2.96900        0.87300        0.01400
H          2.06900        2.11000        0.90700
H          2.07500        2.12300       -0.86700
H         -1.30200       -2.11100        0.02100
H         -3.40200       -0.43300        0.01200
H         -3.01900        1.04800       -0.88600
H         -3.01600        1.05800        0.89000
