15
541-35-5.pdb
C          1.02100       -0.06000        0.02400
C          2.54100       -0.08400        0.05400
C          3.13900        0.79000       -1.04700
C          4.65300        0.77800       -1.03100
N          5.23300        1.54600       -1.99800
O          5.34100        0.14700       -0.23700
H          0.61500       -0.69200        0.82000
H          0.64100       -0.43400       -0.93300
H          0.64100        0.95600        0.17100
H          2.88800       -1.11800       -0.05900
H          2.88800        0.26000        1.03600
H          2.80400        1.82700       -0.92300
H          2.80400        0.43500       -2.02800
H          4.70700        2.08200       -2.67400
H          6.24400        1.57200       -2.03200
