28
5414-99-3.pdb
O          5.30100       -2.14400        3.49800
C          4.75700       -0.98800        3.93600
O          3.77200       -0.95200        4.65800
C          5.46200        0.23900        3.42400
C          4.87500        0.67600        2.08500
C          5.57800        1.91100        1.52100
C          7.01800        1.58400        1.17600
O          7.26400        0.66400        0.39800
N          7.94500        2.33900        1.87100
C          9.34900        2.23400        1.75600
C          9.98000        1.55800        0.70800
C         11.37300        1.45700        0.65800
C         12.14900        2.03700        1.65800
C         11.53400        2.73100        2.69700
C         10.13900        2.83900        2.74100
H          6.06900       -2.02600        2.90400
H          6.53500        0.02900        3.35700
H          5.35300        1.03200        4.17200
H          3.80700        0.89600        2.20600
H          4.93700       -0.15300        1.36800
H          5.50900        2.75000        2.22100
H          5.08900        2.22400        0.59100
H          7.60300        2.94300        2.60900
H          9.41600        1.10900       -0.10200
H         11.84400        0.92500       -0.16300
H         13.23100        1.94600        1.62300
H         12.14100        3.18200        3.47700
H          9.68800        3.37800        3.56900
