21
5416-80-8.pdb
C         -3.50200        0.05700        0.00600
C         -2.02200       -0.08700        0.01000
N         -1.19300        1.00600       -0.00100
C          0.12500        0.61400       -0.00300
C          1.29300        1.38500       -0.01300
C          2.51700        0.71000       -0.01900
C          2.56700       -0.68100       -0.01500
C          1.38900       -1.43700        0.00000
C          0.13900       -0.78100        0.00700
C         -1.22400       -1.22200        0.02500
C         -1.69600       -2.59700        0.05200
O         -2.87900       -2.92700        0.06600
H         -3.80600        1.10700       -0.05200
H         -3.92900       -0.36800        0.92100
H         -3.93400       -0.46500       -0.85400
H         -1.50000        1.97000       -0.00900
H          1.25800        2.47000       -0.01700
H          3.44300        1.28100       -0.02900
H          3.53000       -1.18600       -0.02300
H          1.45100       -2.52100        0.00500
H         -0.90600       -3.36600        0.06200
