18
5416-93-3.pdb
C          1.31500        0.43800       -0.70000
O          2.44500       -0.04500        0.01700
C          3.08500       -1.13500       -0.50800
C          2.69100       -1.85000       -1.63700
C          3.44300       -2.94900       -2.07400
C          4.60700       -3.34800       -1.39700
C          4.97600       -2.63400       -0.25200
C          4.22400       -1.53900        0.18800
N          5.39200       -4.46200       -1.75700
C          5.50400       -4.63200       -2.91300
O          5.60100       -4.80900       -4.07000
H          0.96900        1.35100       -0.20600
H          0.49700       -0.28900       -0.67400
H          1.57800        0.70000       -1.73100
H          1.80200       -1.58500       -2.20000
H          3.09200       -3.49100       -2.95000
H          5.85800       -2.93400        0.31000
H          4.53400       -0.99900        1.08000
