31
5419-02-3.pdb
C          2.82900        1.05100       -0.73100
N          2.37500        0.63700        0.63700
C          0.89700        0.76700        0.81100
C          2.87400       -0.73400        1.04200
C          4.37800       -0.82300        1.06700
C          5.05200        0.01700        1.96200
O          4.29400        0.84000        2.75100
C          6.43600        0.06400        2.02800
C          7.17700       -0.76300        1.18500
C          6.54700       -1.63200        0.28000
C          7.31700       -2.43700       -0.57600
C          6.71200       -3.28900       -1.49700
C          5.32800       -3.35700       -1.57000
C          4.55100       -2.56300       -0.72700
C          5.12800       -1.67800        0.20900
H          2.44100        2.05200       -0.92900
H          2.44200        0.32900       -1.45600
H          3.92400        1.08200       -0.75100
H          2.83400        1.27600        1.31000
H          0.40800        0.03200        0.16500
H          0.60300        1.78200        0.53500
H          0.65600        0.58300        1.86100
H          2.38800       -1.45100        0.38000
H          2.49100       -0.92700        2.05400
H          4.55200        0.64900        3.67600
H          6.95100        0.74700        2.69800
H          8.26500       -0.71900        1.23500
H          8.40400       -2.40300       -0.53700
H          7.32400       -3.90200       -2.15500
H          4.85700       -4.02800       -2.28300
H          3.48000       -2.68000       -0.82700
