22
542-32-5.pdb
N          1.00100        0.09400        0.13300
C          2.49200        0.06700        0.06400
C          3.02100        0.65600       -1.25000
C          2.55400       -0.11000       -2.49000
C          3.09500        0.52200       -3.77400
C          2.62200       -0.22200       -5.00100
O          3.08500        0.32800       -6.14700
O          1.89700       -1.20300       -4.99100
C          3.04700        0.87000        1.25600
O          2.04800        1.25900        2.09500
O          4.22300        1.13700        1.44300
H          0.65200       -0.71200       -0.39500
H          0.66500        0.90000       -0.40200
H          2.82200       -0.97000        0.19800
H          4.11800        0.66100       -1.22800
H          2.71600        1.70800       -1.33100
H          1.45900       -0.12700       -2.53700
H          2.88400       -1.15400       -2.42200
H          4.19000        0.50700       -3.76200
H          2.74900        1.55800       -3.84900
H          3.65400        1.10800       -6.01300
H          1.22100        0.87800        1.70800
