48
54230-60-3.pdb
C          3.30400       -0.05800       -1.35600
C          2.57900       -0.14000       -0.01100
C          1.06300       -0.02100       -0.20300
C          2.95600       -1.40100        0.75300
C          3.60900       -1.30600        1.98000
C          3.91900       -2.43600        2.77600
C          4.58000       -2.14200        4.12900
C          6.10300       -2.16600        3.98000
C          4.16000       -0.83000        4.82100
C          3.60800       -3.74200        2.26200
C          2.94300       -3.86000        0.99700
C          2.63700       -2.67400        0.28400
C          2.42600       -5.16500        0.37800
C          0.92100       -5.32600        0.63700
C          2.67900       -5.28600       -1.14300
S          3.87700       -5.22500        3.27100
O          4.57800       -4.92700        4.50500
O          2.63700       -5.98100        3.31700
N          4.98700       -6.25800        2.48500
C          5.36900       -7.41200        3.11100
N          6.26500       -8.04000        2.38300
C          6.41500       -7.20900        1.30700
N          5.66500       -6.10100        1.31700
H          3.02100        0.85500       -1.89100
H          3.06800       -0.91000       -2.00200
H          4.39000       -0.03800       -1.21100
H          2.89200        0.73400        0.57700
H          0.66300       -0.82600       -0.82700
H          0.81100        0.92900       -0.68700
H          0.54200       -0.05200        0.76000
H          3.86300       -0.30900        2.33200
H          4.25100       -2.88300        4.85300
H          6.46100       -1.27200        3.45400
H          6.44900       -3.03800        3.41500
H          6.58600       -2.18600        4.96200
H          4.56800        0.05800        4.32700
H          4.53600       -0.81600        5.85200
H          3.07000       -0.73500        4.86400
H          2.09900       -2.73500       -0.66100
H          2.93900       -6.02300        0.80900
H          0.35100       -4.45400        0.29400
H          0.71300       -5.45000        1.70300
H          0.52500       -6.20600        0.11800
H          2.10000       -4.56400       -1.72900
H          2.38100       -6.27900       -1.50000
H          3.73800       -5.14700       -1.38300
H          4.98200       -7.72200        4.07300
H          7.09900       -7.43100        0.49700
