24
543-49-7.pdb
C          0.83700        0.04900       -0.05100
C          2.35700        0.02300       -0.05800
C          2.90700       -0.52600       -1.37500
C          4.43700       -0.54300       -1.36700
C          5.00500       -1.08000       -2.68500
C          6.53800       -1.09500       -2.68300
C          7.10100       -1.65100       -3.98500
O          7.04100        0.22500       -2.50100
H          0.47000        0.44900        0.90100
H          0.42700       -0.95800       -0.17700
H          0.45100        0.68200       -0.85600
H          2.71000       -0.59200        0.77800
H          2.73300        1.04000        0.10700
H          2.55000        0.09100       -2.20800
H          2.52800       -1.54200       -1.53800
H          4.79300       -1.16600       -0.53700
H          4.80700        0.47400       -1.18900
H          4.64600       -0.44600       -3.50500
H          4.62700       -2.09400       -2.86300
H          6.90400       -1.70300       -1.84700
H          6.75000       -1.07000       -4.84500
H          6.81300       -2.69600       -4.12900
H          8.19400       -1.58500       -3.98700
H          6.71500        0.77200       -3.23400
