29
5430-01-3.pdb
C          0.92100       -0.11900        0.07700
C          2.43800       -0.13100        0.08100
C          2.98300        0.97800       -0.80500
C          4.50800        0.97700       -0.80800
C          5.01200        2.09700       -1.70700
C          6.54300        2.15900       -1.74500
C          7.05700        3.32000       -2.63600
C          8.58900        3.33100       -2.69300
O          6.55800        3.13100       -3.96800
C          6.56800        4.65600       -2.12200
C          6.16700        5.72300       -1.71100
H          0.53500       -0.91600        0.71700
H          0.53200       -0.27400       -0.93600
H          0.53700        0.83700        0.44800
H          2.79900       -1.10300       -0.27500
H          2.80400       -0.00100        1.10600
H          2.61600        1.95000       -0.45200
H          2.61300        0.84900       -1.83000
H          4.88100        0.01300       -1.17300
H          4.88700        1.11300        0.21200
H          4.61200        3.05000       -1.34100
H          4.61200        1.94400       -2.71600
H          6.92400        1.18900       -2.10200
H          6.91400        2.28900       -0.72100
H          9.01100        2.42400       -3.14900
H          9.02500        3.44900       -1.69500
H          8.93800        4.16500       -3.31300
H          6.98400        2.34700       -4.35600
H          5.81700        6.66200       -1.36000
