15
5431-44-7.pdb
O          1.29800        0.08400        0.71100
C          2.28100        0.07500       -0.02100
C          2.93800        1.31600       -0.48400
C          2.44000        2.55000       -0.08100
C          3.06900        3.69900       -0.54900
C          4.15700        3.57500       -1.40700
C          4.58000        2.29600       -1.75400
C          5.71500        2.12000       -2.68600
O          6.31400        3.06900       -3.18200
N          4.00200        1.15200       -1.30800
H          2.72900       -0.86800       -0.38100
H          1.57900        2.61500        0.57800
H          2.70900        4.68100       -0.25400
H          4.65900        4.45500       -1.80100
H          5.98900        1.07800       -2.91600
