20
5434-20-8.pdb
N          2.34200       -0.00900        0.22000
C          0.94600       -0.06800        0.01400
C          0.24700        1.14900        0.05300
C         -1.14100        1.18100        0.01500
C         -1.85600       -0.01000       -0.01500
C         -1.18500       -1.25000       -0.03000
C         -2.02600       -2.46500       -0.00600
O         -3.12800       -2.41300       -0.77800
O         -1.75300       -3.41900        0.70200
C          0.22300       -1.29400        0.01500
C          1.04300       -2.54300       -0.06600
O          0.67400       -3.59900        0.67800
O          2.08700       -2.55900       -0.70800
H          2.79100        0.82500       -0.14600
H          2.82000       -0.85800       -0.10900
H          0.79400        2.08800        0.12100
H         -1.66200        2.13600        0.04100
H         -2.94200        0.04300        0.01800
H         -3.21900       -1.63800       -1.36500
H         -0.24800       -3.60700        1.02900
