14
5435-54-1.pdb
O          1.89600       -0.03100       -1.06700
N          2.36700        0.07500        0.07500
O          2.32900       -0.79700        0.95000
C          3.08600        1.27100        0.37200
C          4.13000        1.60700       -0.40100
N          4.86900        2.74100       -0.15200
C          4.56300        3.56600        0.90100
C          3.53700        3.33900        1.73500
C          2.68600        2.12900        1.50400
O          1.71200        1.92600        2.21800
H          4.46300        1.01600       -1.25000
H          5.66700        2.96100       -0.74500
H          5.21500        4.42900        1.01300
H          3.28000        3.98500        2.56300
