21
5436-21-5.pdb
C          1.33200        0.71000        0.15700
O          2.70000        0.46500       -0.12500
C          2.97100       -0.81700       -0.68300
C          2.32600       -1.03400       -2.04900
C          2.62800       -0.01100       -3.12600
C          3.78800        0.94600       -3.01300
O          1.96200       -0.03000       -4.16800
O          4.37900       -1.01200       -0.84100
C          5.06900       -1.03800        0.40000
H          1.27300        1.59500        0.79900
H          0.87300       -0.13400        0.68100
H          0.78700        0.92700       -0.76500
H          2.60000       -1.58800        0.00100
H          1.23500       -1.04500       -1.93700
H          2.63600       -2.00800       -2.44400
H          3.96300        1.27200       -1.99200
H          3.54600        1.84900       -3.58000
H          4.69000        0.48600       -3.41400
H          6.14300       -1.03800        0.19100
H          4.82300       -1.95000        0.95200
H          4.84000       -0.15600        1.00700
