15
5436-01-1.pdb
C          1.00400        0.15000        0.09800
N          2.44700        0.08800        0.16500
N          3.10800        1.30900       -0.00500
C          4.46300        1.40300       -0.15800
O          5.04600        2.47600       -0.25500
C          5.20500        0.13200       -0.19800
C          4.57600       -1.04000       -0.07700
C          3.11000       -1.12200        0.07600
O          2.56300       -2.21900        0.10500
H          0.64200        1.17800        0.19100
H          0.58500       -0.45600        0.90700
H          0.67700       -0.27300       -0.85700
H          2.59300        2.17500        0.11200
H          6.27800        0.20200       -0.32600
H          5.10800       -1.98300       -0.10700
