26
5438-70-0.pdb
C          2.46800       -1.44800       -2.21300
C          2.45800       -0.54700       -0.99100
O          3.06300        0.70000       -1.36100
C          4.42300        0.74800       -1.22300
O          5.08700       -0.06500       -0.59700
C          4.95100        1.90700       -2.03700
C          6.45700        1.97900       -2.07500
C          7.18200        1.20400       -2.99200
C          8.58000        1.21400       -2.97600
C          9.27800        2.02500       -2.07800
N         10.66900        1.91200       -1.96300
C          8.55300        2.75600       -1.13500
C          7.15600        2.75100       -1.14400
H          1.98800       -2.40600       -2.00200
H          3.49400       -1.63400       -2.54900
H          1.94900       -0.96300       -3.04500
H          2.96200       -1.01600       -0.13800
H          1.42900       -0.33700       -0.68600
H          4.54200        2.84100       -1.63600
H          4.58100        1.79700       -3.06400
H          6.66800        0.55500       -3.69900
H          9.11900        0.56700       -3.66100
H         11.13200        1.63600       -2.82200
H         11.11000        2.71200       -1.52100
H          9.07300        3.32700       -0.37100
H          6.62100        3.32800       -0.39300
