33
544-01-4.pdb
C          0.84400       -0.03200       -0.07300
C          2.37100        0.04900       -0.03600
C          2.80300        1.50300        0.17900
C          2.93300       -0.90000        1.04000
C          4.45500       -0.87500        1.09800
O          4.93600       -1.80900        2.06600
C          6.36000       -1.71600        2.14900
C          6.89400       -2.65600        3.22200
C          8.43200       -2.63000        3.30700
C          8.97500       -1.24400        3.66400
C          8.92400       -3.65600        4.32800
H          0.44300        0.60700       -0.86300
H          0.40700        0.28500        0.87900
H          0.51700       -1.06000       -0.27200
H          2.74900       -0.27400       -1.01400
H          2.51900        1.85800        1.17600
H          2.33600        2.16100       -0.56200
H          3.88500        1.62200        0.06900
H          2.60200       -1.92700        0.83700
H          2.52600       -0.64900        2.02700
H          4.80200        0.12400        1.38100
H          4.87000       -1.13100        0.11500
H          6.62500       -0.68200        2.39000
H          6.79100       -1.97800        1.17600
H          6.55000       -3.67500        3.00300
H          6.44900       -2.39600        4.19100
H          8.83900       -2.91100        2.32700
H          8.54500       -0.87900        4.60300
H          8.75700       -0.51100        2.88100
H         10.06400       -1.27100        3.77700
H          8.55500       -3.42500        5.33300
H         10.01900       -3.67100        4.36400
H          8.58600       -4.66300        4.06200
