44
544-63-8.pdb
C          1.05600        0.02100       -0.04900
C          2.57400        0.02500       -0.05100
C          3.09600        0.95600       -1.13800
C          4.61600        0.96200       -1.14500
C          5.12800        1.89400       -2.23000
C          6.64600        1.90000       -2.23400
C          7.15700        2.83200       -3.31600
C          8.67400        2.83600       -3.32100
C          9.18600        3.77000       -4.40500
C         10.70500        3.77800       -4.41400
C         11.22400        4.71000       -5.49600
C         12.74200        4.72000       -5.50900
C         13.30100        5.65200       -6.59000
C         14.81300        5.63000       -6.56500
O         15.38600        6.42700       -7.49000
O         15.48000        4.96500       -5.79300
H          0.68400       -0.64700        0.73200
H          0.67300       -0.32100       -1.01200
H          0.67100        1.02500        0.13900
H          2.94800       -0.99100       -0.22100
H          2.94600        0.35200        0.92700
H          2.72400        1.97400       -0.97000
H          2.72400        0.63300       -2.11800
H          4.99400       -0.05300       -1.31800
H          4.99300        1.28700       -0.16800
H          4.75200        2.91000       -2.05900
H          4.75400        1.57000       -3.20900
H          7.02300        0.88400       -2.40700
H          7.02100        2.22300       -1.25500
H          6.78100        3.84800       -3.14200
H          6.78100        2.51000       -4.29500
H          9.04900        1.82000       -3.49400
H          9.04900        3.15800       -2.34200
H          8.80800        4.78400       -4.22900
H          8.80800        3.44600       -5.38200
H         11.07800        2.76000       -4.58500
H         11.07800        4.09700       -3.43300
H         10.84100        5.72700       -5.32200
H         10.84100        4.38700       -6.47600
H         13.10800        3.69700       -5.66900
H         13.10800        5.03100       -4.52100
H         12.94900        6.66900       -6.40600
H         12.94900        5.31800       -7.56900
H         14.77400        6.91900       -8.06200
