24
54458-61-6.pdb
C          1.07200        0.03700       -0.12400
C          2.60200        0.03800       -0.07600
C          3.14000       -1.25900        0.55600
C          4.39900       -1.76700       -0.13900
C          3.50000       -0.79600        1.94400
O          3.76100       -1.53400        2.88200
C          3.58600        0.67800        2.01200
C          3.11600        1.12800        0.83800
C          3.07200        2.55100        0.39100
C          4.13500        1.40500        3.17800
H          0.70800       -0.78200       -0.75400
H          0.68600        0.97300       -0.54100
H          0.63400       -0.08900        0.87400
H          2.99000        0.16800       -1.09200
H          2.37800       -2.04300        0.60400
H          5.19700       -1.01600       -0.13300
H          4.18800       -2.03200       -1.17900
H          4.78700       -2.65600        0.36900
H          3.49600        3.23000        1.13700
H          2.04300        2.86800        0.19800
H          3.65100        2.67100       -0.53100
H          4.36300        0.72800        4.00700
H          3.41500        2.14300        3.54600
H          5.06100        1.92100        2.90600
