27
5445-44-3.pdb
N          0.91600       -0.09100        0.21000
C          2.42000       -0.10600        0.18400
C          3.00900        1.28300        0.45000
O          2.50400        2.20900       -0.52100
C          3.02800        3.52000       -0.29000
C          2.57600        4.49300       -1.35000
C          1.33900        4.36300       -1.99700
C          0.92600        5.31100       -2.93800
C          1.73800        6.40400       -3.23200
C          2.96300        6.55400       -2.58700
C          3.37700        5.60700       -1.64800
C          2.92800       -1.07400        1.25200
O          1.90600       -1.77200        1.81500
O          4.09600       -1.21400        1.58000
H          0.63600        0.35100       -0.67400
H          0.62600        0.61500        0.89900
H          2.72400       -0.48700       -0.79600
H          4.10300        1.24700        0.38700
H          2.73200        1.62700        1.45400
H          4.12300        3.46600       -0.28800
H          2.68300        3.88000        0.68700
H          0.69100        3.52000       -1.77400
H         -0.03200        5.19700       -3.43800
H          1.41500        7.14200       -3.96100
H          3.59500        7.40900       -2.81000
H          4.33400        5.74500       -1.14800
H          1.08800       -1.47500        1.34000
