37
5448-36-2.pdb
C          2.97100        0.68100       -1.30100
C          2.50200       -0.07000       -0.04600
C          2.84300       -1.56100       -0.15600
N          2.96700        0.52400        1.23800
C          1.96700        0.69100        2.33100
C          1.08500        1.92200        2.11100
C          1.10200       -0.55200        2.58700
C          4.35600        0.68500        1.44000
O          5.21200        0.34600        0.62400
C          4.86300        1.23100        2.72700
C          5.82100        0.49100        3.42700
C          6.24400        0.91900        4.68600
C          5.71300        2.08300        5.24500
C          4.79700        2.86100        4.52800
C          4.22200        4.11500        5.11500
C          4.41000        2.44900        3.24700
H          2.57600        0.19100       -2.20100
H          4.05600        0.70700       -1.40800
H          2.60300        1.71000       -1.29800
H          1.40900        0.01600       -0.06400
H          3.91800       -1.74700       -0.07100
H          2.50700       -1.96900       -1.11600
H          2.34900       -2.13800        0.63100
H          2.49500        0.84200        3.27400
H          0.47100        1.82800        1.21100
H          1.68100        2.83200        2.00300
H          0.41500        2.06800        2.96600
H          0.43400       -0.77300        1.75200
H          0.48300       -0.39700        3.47600
H          1.73400       -1.42400        2.77200
H          6.22900       -0.42000        2.99500
H          6.98000        0.33700        5.23600
H          6.02700        2.38100        6.24400
H          4.55100        4.26500        6.14900
H          3.12600        4.05900        5.12400
H          4.53200        4.98500        4.53000
H          3.73200        3.06400        2.66500
