18
5451-39-8.pdb
N          3.28700       -1.46500       -3.45400
C          2.88600       -0.37600       -2.73100
O          2.21600        0.51200       -3.24500
C          3.27000       -0.38600       -1.27000
C          4.75700       -0.28500       -1.06700
C          5.37700        0.95900       -0.97000
C          6.75000        1.01100       -0.75000
C          7.46900       -0.17400       -0.63600
C          6.78100       -1.36800       -0.76100
N          5.44800       -1.45200       -0.97900
H          3.10900       -1.46300       -4.44900
H          3.98600       -2.10100       -3.08400
H          2.89000       -1.30900       -0.81400
H          2.76200        0.44300       -0.76500
H          4.80200        1.87600       -1.05700
H          7.25500        1.96900       -0.66200
H          8.53700       -0.16600       -0.45500
H          7.29600       -2.32100       -0.67900
