19
5453-80-5.pdb
O          3.23200        0.71600        1.07700
C          2.97300        0.53400       -0.10900
C          3.30800       -0.73600       -0.86400
C          2.21900       -1.05000       -1.93400
C          1.62900       -2.39100       -1.44100
C          1.72900       -2.23800        0.07900
C          3.24200       -1.97800        0.05300
C          3.66300       -3.19500       -0.75300
C          2.68800       -3.44500       -1.64000
H          2.53200        1.34900       -0.70900
H          4.28900       -0.59600       -1.33200
H          2.66800       -1.15100       -2.93000
H          1.44800       -0.27400       -1.98400
H          0.64200       -2.64900       -1.82300
H          1.45400       -3.14700        0.63000
H          1.14300       -1.40000        0.47200
H          3.70500       -1.89700        1.03800
H          4.59100       -3.73500       -0.63600
H          2.67300       -4.23200       -2.37900
