19
5455-59-4.pdb
N          1.46200       -0.86600       -0.07800
S          2.89600       -0.03100        0.07000
O          2.55400        1.22500        0.69900
O          3.86200       -0.93500        0.64700
C          3.37400        0.27900       -1.59700
C          3.47400        1.60000       -2.05600
C          4.01800        1.86000       -3.31900
C          4.47800        0.81400       -4.12200
C          4.37300       -0.50300       -3.67900
C          3.81500       -0.76000       -2.42100
N          3.69400       -2.15200       -2.02400
O          2.55100       -2.60700       -1.89700
O          4.74400       -2.79800       -1.91600
H          0.74500       -0.48600        0.54000
H          1.60200       -1.87700        0.01700
H          3.15800        2.43500       -1.43200
H          4.10600        2.88800       -3.67000
H          4.92300        1.02800       -5.09200
H          4.73300       -1.31600       -4.30800
