17
5457-28-3.pdb
N         -3.50600        0.98900       -0.00600
C         -2.50600        0.39700        0.00200
C         -1.27300       -0.32400        0.00800
C         -1.15200       -1.69700       -0.00100
N          0.18500       -1.99800        0.00100
C          0.93300       -0.84200       -0.00300
C          2.32200       -0.66600       -0.02100
C          2.80900        0.64500       -0.02000
C          1.94200        1.73500        0.00600
C          0.55600        1.54300        0.02400
C          0.03800        0.23100        0.01300
H         -1.89700       -2.48200       -0.01100
H          0.57400       -2.93200       -0.00100
H          3.00400       -1.51000       -0.03900
H          3.88300        0.81700       -0.04000
H          2.34300        2.74600        0.00900
H         -0.11000        2.40200        0.04200
