16
54593-26-9.pdb
C          2.55300        0.49800        0.00000
C          1.09400        0.28100       -0.00000
O          0.68000       -1.01400       -0.00500
N         -0.69900       -1.05900       -0.00600
C         -1.10800        0.21600       -0.00200
C         -2.55600        0.53400       -0.00500
C         -0.00600        1.11000        0.00200
C          0.00900        2.55000        0.00600
O         -1.00500        3.24000        0.00800
H          3.10000       -0.45000       -0.01400
H          2.85600        1.05100        0.89500
H          2.85300        1.07500       -0.87900
H         -3.16700       -0.37500        0.00600
H         -2.82100        1.10500       -0.90000
H         -2.82000        1.12600        0.87700
H          1.00700        3.02100        0.00800
