23
5459-40-5.pdb
C          0.90900       -0.04900       -0.43100
C          2.39500       -0.20300       -0.69600
O          2.98900        1.09400       -0.71600
C          4.33600        1.14700       -0.95400
C          5.17300        0.05300       -1.16500
C          6.54100        0.24300       -1.39900
C          7.09300        1.52800       -1.43700
C          8.52800        1.76400       -1.64700
C          9.33400        0.98300       -2.37900
C          6.24900        2.62200       -1.20900
C          4.88300        2.43100       -0.97500
H          0.41900       -1.02600       -0.39400
H          0.43700        0.55200       -1.21600
H          0.73600        0.47000        0.51700
H          2.53300       -0.69800       -1.66400
H          2.83600       -0.80900        0.10400
H          4.80000       -0.96600       -1.14800
H          7.16800       -0.63400       -1.53900
H          8.94200        2.65300       -1.17400
H          8.98000        0.09900       -2.89800
H         10.38500        1.23000       -2.48800
H          6.64400        3.63500       -1.21800
H          4.24200        3.29300       -0.80600
