18
5460-31-1.pdb
C         -1.77600       -1.64800        0.00600
C         -0.53500       -0.79800       -0.00900
C         -0.56900        0.60500       -0.00000
O         -1.71500        1.34900        0.01000
C          0.60700        1.36700        0.00600
C          1.85600        0.75100        0.00600
C          1.93600       -0.63600       -0.00200
C          0.75000       -1.39100       -0.01200
N          0.91000       -2.83800       -0.02100
O          0.42500       -3.45900       -0.97500
O          1.54500       -3.33900        0.91700
H         -2.70100       -1.07000        0.04600
H         -1.77800       -2.29700        0.88800
H         -1.83500       -2.25800       -0.90000
H         -2.50200        0.78900       -0.04900
H          0.54000        2.45200        0.01500
H          2.76000        1.35600        0.01200
H          2.91000       -1.12000       -0.00200
