35
5460-79-7.pdb
C          2.08000       -0.77700        2.70600
O          3.32400       -0.43400        2.10500
C          3.49000        0.87400        1.73600
C          2.53000        1.87500        1.85600
C          2.82500        3.16300        1.42400
C          4.07900        3.46400        0.88100
C          5.09200        2.49500        0.79000
C          4.75000        1.18700        1.20200
C          6.52500        2.80600        0.27200
C          7.59200        2.39900        1.32200
C          7.62900        3.35600        2.51400
N          7.83300        4.75900        2.14300
C          9.21200        5.05600        1.76500
C          6.86700        5.20900        1.14300
C          6.76900        4.29800       -0.08700
C          6.77300        1.99700       -0.99000
N          6.97800        1.32500       -2.03700
H          2.12100       -1.83600        2.98400
H          1.25200       -0.65000        2.00100
H          1.91000       -0.20300        3.62400
H          1.54600        1.68500        2.27000
H          2.07300        3.94600        1.51300
H          4.22200        4.48500        0.54700
H          5.46900        0.37200        1.11000
H          8.58600        2.37900        0.85300
H          7.43200        1.37800        1.69000
H          8.40700        3.03600        3.21700
H          6.68700        3.27700        3.07500
H          9.89500        4.80500        2.58400
H          9.33000        6.13000        1.58200
H          9.53600        4.52000        0.86800
H          7.10200        6.23100        0.81900
H          5.89800        5.29900        1.64300
H          7.70700        4.38800       -0.65400
H          5.99300        4.67400       -0.76600
