21
54605-72-0.pdb
O          3.64000        1.53400       -3.36900
C          3.10900        0.98400       -2.41200
C          3.49000       -0.32000       -1.92600
C          2.96900       -1.06000       -0.85200
N          3.57200       -2.23900       -0.69800
N          4.53300       -2.26600       -1.66100
C          4.48200       -1.13000       -2.43700
C          5.44500       -3.35300       -1.76600
C          5.31200       -4.45800       -0.91100
C          6.21700       -5.51900       -0.98900
C          7.26000       -5.48400       -1.91200
C          7.39700       -4.39100       -2.76500
C          6.49200       -3.32800       -2.69900
H          2.29100        1.47700       -1.85800
H          2.17100       -0.79400       -0.17100
H          5.14200       -0.96900       -3.27600
H          4.50800       -4.50600       -0.17900
H          6.10800       -6.37200       -0.32400
H          7.96800       -6.30700       -1.96500
H          8.21500       -4.36100       -3.48100
H          6.64400       -2.49500       -3.37700
