30
5461-08-5.pdb
C          3.73500        2.41800        1.08500
C          3.75200        1.00300        0.50700
C          4.53900        0.98000       -0.79900
C          4.33100        0.03400        1.52600
O          4.68700        0.34300        2.65400
O          4.33900       -1.23700        1.03000
C          4.83400       -2.23200        1.93800
C          6.34200       -2.27700        1.91400
C          7.02900       -2.54500        0.70700
C          8.42700       -2.56100        0.66400
C          9.10800       -2.30100        1.83500
O         10.45900       -2.25400        1.97300
C         10.57300       -1.88200        3.36200
O          9.30400       -1.81500        4.04400
C          8.44900       -2.04800        3.01200
C          7.07300       -2.03300        3.08800
H          3.29800        3.12800        0.37600
H          4.74800        2.75900        1.32900
H          3.14400        2.45500        2.00700
H          2.71500        0.69800        0.31900
H          5.59300        1.22800       -0.63100
H          4.12800        1.70300       -1.51300
H          4.50200       -0.00700       -1.27000
H          4.44400       -3.20300        1.61200
H          4.43900       -2.06800        2.94800
H          6.46600       -2.73000       -0.20600
H          8.95900       -2.75800       -0.26000
H         11.05300       -0.89800        3.42200
H         11.20900       -2.61400        3.87200
H          6.57900       -1.81200        4.03000
