19
5462-71-5.pdb
O          3.35800        1.00700       -2.16100
C          2.58200        1.13400       -1.06500
O          1.37200        1.30800       -1.16500
C          3.27400        1.05700        0.27900
C          4.77600        0.85600        0.27100
C          5.63300        1.96500        0.21100
C          7.02000        1.79100        0.19600
C          7.57000        0.50700        0.23000
C          6.72100       -0.60400        0.27800
C          5.33200       -0.43100        0.30100
C          8.99500        0.33000        0.22000
N         10.14600        0.18900        0.20900
H          4.30700        0.87100       -1.98000
H          2.80800        0.24100        0.84500
H          3.05100        1.98900        0.81300
H          5.22700        2.97600        0.18600
H          7.66700        2.66700        0.16400
H          7.13600       -1.61000        0.30800
H          4.69300       -1.31200        0.35200
