30
5462-82-8.pdb
O          1.42000        0.36400        0.91800
C          1.96700       -0.14300       -0.21200
O          1.55700        0.14000       -1.32400
C          2.95800       -1.22100        0.05200
C          2.63500       -2.38900       -0.68400
C          3.34000       -3.56200       -0.51000
C          4.36600       -3.57700        0.41400
C          4.70800       -2.43500        1.15600
C          5.72700       -2.63200        2.07800
C          6.12200       -1.62400        2.93300
C          5.55300       -0.36200        2.86200
C          6.02400        0.55600        3.81500
C          5.55900        1.85500        3.86000
C          4.69200        2.27200        2.87200
C          4.27300        1.37900        1.85600
C          3.78600        2.05800        0.63600
O          3.07100        3.16800        0.90700
O          4.05900        1.73000       -0.49900
C          4.57900       -0.03500        1.86500
C          4.05700       -1.16500        1.00600
H          1.74500       -0.04600        1.73900
H          1.80400       -2.38500       -1.39000
H          3.08500       -4.46000       -1.06600
H          4.90100       -4.51700        0.56100
H          6.22200       -3.59800        2.17500
H          6.90500       -1.84900        3.65500
H          6.77800        0.26200        4.54600
H          5.92900        2.55100        4.60800
H          4.40900        3.32300        2.84700
H          2.86000        3.53600        0.02200
