18
5466-88-6.pdb
O          3.20900       -0.69800        0.06300
C          2.05800       -0.27500       -0.00700
C          1.71500        1.19200       -0.26200
O          0.43300        1.68100        0.10400
C         -0.56200        0.74500        0.02800
C         -1.87100        1.22500        0.03100
C         -2.94100        0.33000       -0.01500
C         -2.70200       -1.04500       -0.04700
C         -1.39300       -1.53000       -0.02800
C         -0.32500       -0.63200        0.00700
N          0.98100       -1.11700        0.05000
H          1.85500        1.37900       -1.33300
H          2.45200        1.79600        0.27800
H         -2.05700        2.29500        0.06700
H         -3.96100        0.70600       -0.02100
H         -3.53800       -1.73900       -0.08200
H         -1.22100       -2.60200       -0.04400
H          1.17300       -2.10600        0.13600
