25
5466-89-7.pdb
C          0.78100        0.51500        1.50000
C          2.25800        0.42600        1.89500
C          2.66400       -1.03900        2.05200
C          3.13600        1.11500        0.84700
O          2.69400        1.49400       -0.23800
C          4.58900        1.31200        1.12100
C          5.46900        1.37600        0.02500
C          6.84300        1.55400        0.21900
C          7.32700        1.68000        1.51400
O          8.65600        1.85600        1.77700
C          6.45400        1.63400        2.59900
O          6.93800        1.77600        3.86900
C          5.08900        1.44900        2.41900
H          0.14700        0.03700        2.25500
H          0.59200        0.02600        0.53800
H          0.46700        1.56000        1.41100
H          2.36100        0.94900        2.85100
H          2.73300       -1.53900        1.07900
H          1.94200       -1.58600        2.66700
H          3.64100       -1.12900        2.53700
H          5.08100        1.28200       -0.98900
H          7.50200        1.59300       -0.64200
H          9.13800        1.84900        0.93200
H          7.89900        1.91500        3.75200
H          4.44700        1.43300        3.29200
