17
5466-84-2.pdb
O          1.49000        0.78300       -0.05900
N          2.44600        0.00300        0.03400
O          2.82500       -0.53100        1.08400
C          3.18500       -0.31800       -1.19500
C          2.78600        0.27100       -2.42000
C          3.46900       -0.03400       -3.60300
C          4.52900       -0.92100       -3.51800
C          5.39900       -1.42800       -4.55600
O          5.34600       -1.15200       -5.73600
O          6.26900       -2.26900       -3.93500
C          6.03900       -2.35200       -2.59700
O          6.64100       -3.01400       -1.77800
C          4.91400       -1.48300       -2.33200
C          4.26900       -1.20800       -1.13800
H          1.94500        0.96400       -2.46000
H          3.17800        0.40500       -4.55400
H          4.59900       -1.67300       -0.21300
