18
5466-06-8.pdb
C          2.47500        1.21900        1.98100
C          2.54700        0.28200        0.78800
O          3.08700       -0.96700        1.23900
C          4.44600       -1.03800        1.25200
O          5.20200       -0.25700        0.68800
C          4.88800       -2.18000        2.12500
C          6.20100       -1.80300        2.79500
S          6.69700       -3.06300        4.00700
H          2.05200        2.18700        1.70100
H          3.47000        1.38000        2.41100
H          1.86200        0.77700        2.77200
H          3.13700        0.71400       -0.03000
H          1.54200        0.08900        0.40000
H          4.98300       -3.08000        1.50900
H          4.11800       -2.35000        2.88800
H          6.11300       -0.84100        3.31300
H          6.99900       -1.70500        2.05200
H          5.71600       -2.82300        4.89000
