15
547-64-8.pdb
C          1.02400       -0.05900       -0.13500
O          2.45100       -0.01100       -0.11300
C          3.00300        0.68800       -1.14800
O          2.37100        1.24900       -2.03300
C          4.53100        0.66200       -1.07000
C          5.05900       -0.75800       -1.18100
O          5.13000        1.43700       -2.10900
H          0.69500       -0.72300        0.66900
H          0.66200       -0.46500       -1.08500
H          0.61100        0.93800        0.04400
H          4.83300        1.11400       -0.12000
H          4.73000       -1.22200       -2.11800
H          4.71100       -1.38400       -0.35300
H          6.15400       -0.76500       -1.18800
H          4.58900        1.29900       -2.91000
