13
547-65-9.pdb
C         -1.10700        1.85000       -0.15400
C         -0.17900        0.90200        0.01500
C          1.27600        1.07400        0.21800
C          1.78700       -0.30800       -0.11400
O          0.69500       -1.21600        0.05500
C         -0.48700       -0.54300        0.01800
O         -1.59500       -1.04700        0.00700
H         -0.85000        2.90300       -0.14800
H         -2.15400        1.58800       -0.29100
H          1.48300        1.31900        1.26500
H          1.72700        1.83800       -0.42200
H          2.60300       -0.60300        0.55300
H          2.14400       -0.38100       -1.14700
