24
5470-95-1.pdb
C          0.96800        0.38600       -0.49300
O          2.29100        0.07900       -0.06900
C          2.98800       -0.84500       -0.80300
C          2.65800       -1.15200       -2.13400
C          3.43000       -2.04200       -2.87800
C          4.56000       -2.61600       -2.31300
C          4.91900       -2.30800       -0.99400
C          6.16300       -2.89500       -0.44600
N          6.94000       -3.64200       -1.17100
O          8.04500       -4.03500       -0.41100
C          4.12400       -1.44300       -0.21500
O          4.56800       -1.20600        1.06400
C          3.57700       -0.98600        2.06300
H          0.50800        1.01500        0.27500
H          0.36200       -0.52100       -0.58900
H          0.97400        0.96000       -1.42500
H          1.81300       -0.68800       -2.63400
H          3.16400       -2.26700       -3.90800
H          5.16900       -3.29300       -2.90700
H          6.42600       -2.67200        0.60200
H          8.57600       -4.53300       -1.05800
H          4.02000       -1.24200        3.03100
H          2.69600       -1.62300        1.92700
H          3.30500        0.07300        2.10800
