20
5470-49-5.pdb
C          4.27100       -0.02500       -1.07500
S          2.87100        0.07700        0.00500
O          1.74800        0.58500       -0.76600
O          2.76500       -1.17000        0.73300
C          3.34100        1.34000        1.16400
C          3.01400        2.67000        0.90100
C          3.31100        3.65100        1.84900
C          3.96600        3.32300        3.04000
N          4.09300        4.27800        4.05300
C          4.26900        1.98100        3.29700
C          3.97400        0.98800        2.35800
H          4.05500       -0.77700       -1.83600
H          5.14800       -0.32100       -0.49700
H          4.42800        0.94600       -1.54900
H          2.51100        2.95000       -0.02300
H          3.01600        4.68000        1.65300
H          4.13100        5.23800        3.72700
H          4.81000        4.07000        4.74300
H          4.73000        1.69700        4.23900
H          4.22000       -0.04800        2.58000
