24
5471-51-2.pdb
C          1.04700        0.09300       -0.08800
C          2.55400        0.13800       -0.14100
O          3.14700        0.78900       -0.99900
C          3.26600       -0.67300        0.91700
C          4.79000       -0.63700        0.79400
C          5.50300       -1.39900        1.89400
C          4.96800       -2.56500        2.46300
C          5.63400       -3.23900        3.48900
C          6.85900       -2.76300        3.93500
O          7.53500       -3.38600        4.94000
C          7.43300       -1.63700        3.35800
C          6.76000       -0.95700        2.33800
H          0.62500        0.67600       -0.90900
H          0.70500        0.51100        0.86200
H          0.71000       -0.94400       -0.18100
H          2.89900       -1.70000        0.81400
H          2.96000       -0.28900        1.89700
H          5.11700        0.41100        0.81400
H          5.10300       -1.04700       -0.17500
H          4.02100       -2.97300        2.12400
H          5.18000       -4.12500        3.92100
H          7.00100       -4.13400        5.25200
H          8.39900       -1.28300        3.70600
H          7.22300       -0.07700        1.89800
