23
5471-82-9.pdb
C          2.07200       -1.04000       -0.30800
O          2.30400        0.26200        0.23700
C          2.88600        1.17900       -0.57700
O          3.36500        0.96700       -1.67600
C          2.74100        2.53200        0.02300
C          1.73100        2.75800        0.97500
C          1.46600        4.04300        1.44500
C          2.20100        5.12800        0.97300
C          3.23700        4.94500        0.04400
C          4.02000        6.14800       -0.40600
C          3.49500        3.63300       -0.41700
N          4.62200        3.41100       -1.30800
O          5.60200        2.83100       -0.82300
O          4.54800        3.89600       -2.44300
H          2.33300       -1.78100        0.45200
H          2.64300       -1.24600       -1.21700
H          1.00200       -1.12800       -0.52100
H          1.11800        1.93800        1.34700
H          0.66900        4.20000        2.16900
H          1.95800        6.12400        1.34300
H          3.63900        7.06500        0.05900
H          3.93800        6.28400       -1.48800
H          5.07200        6.05000       -0.12000
