29
5472-13-9.pdb
C          2.36900       -0.05100       -0.99900
C          0.93900        0.00100       -0.52800
C          0.26800        1.23500       -0.55000
C         -1.06000        1.33700       -0.13700
C         -1.74300        0.20600        0.29000
C         -1.09000       -1.02400        0.32500
C          0.26200       -1.15000       -0.06300
C          0.97300       -2.48800        0.11100
O          0.02600       -3.55900        0.06800
C          1.80800       -2.60200        1.38100
C          1.43200       -1.98100        2.58400
C          2.21900       -2.10700        3.73200
C          3.38200       -2.86800        3.70100
C          3.75600       -3.51600        2.52600
C          2.97300       -3.39000        1.37700
H          2.71200        0.92800       -1.34800
H          2.46600       -0.74500       -1.84000
H          3.03200       -0.36000       -0.18600
H          0.78100        2.13300       -0.88600
H         -1.56200        2.30000       -0.15300
H         -2.78000        0.27700        0.60300
H         -1.64000       -1.89600        0.67600
H          1.62100       -2.64000       -0.76100
H          0.05400       -4.00000        0.93400
H          0.52800       -1.37900        2.64200
H          1.92000       -1.60200        4.64800
H          3.99700       -2.95600        4.59300
H          4.66000       -4.11900        2.50600
H          3.27800       -3.91100        0.47100
