16
5472-41-3.pdb
N          1.10200       -0.06100        0.21200
C          2.46300        0.03000        0.12400
N          3.16200       -1.06200        0.03200
C          4.55100       -0.99800       -0.01400
O          5.17000       -2.05700       -0.03900
N          5.28400        0.17800       -0.04000
C          4.62600        1.28000        0.00600
N          5.11100        2.57900       -0.02400
N          4.02800        3.39900        0.24900
C          2.88300        2.60900        0.24400
C          3.15900        1.30300        0.13800
H          0.71900       -0.96400       -0.04600
H          0.53100        0.73700       -0.03500
H          5.98700        2.72400        0.47800
H          3.94700        4.25300       -0.30900
H          1.91500        3.08100        0.32500
