38
54827-17-7.pdb
C         -2.54500       -0.73400       -0.05300
C         -1.21400       -0.03000       -0.01800
C         -1.20000        1.37900       -0.01200
C         -0.00700        2.11800        0.02400
C          1.18800        1.38400        0.03500
C          1.20800       -0.02600        0.00200
C          2.54100       -0.72500       -0.04000
C         -0.00200       -0.74400        0.02400
N          0.00100       -2.14200       -0.14600
C         -0.01400        3.60300        0.03900
C         -1.03100        4.32800        0.67600
C         -1.05400        5.73700        0.69700
C         -2.19500        6.41900        1.40700
C         -0.03800        6.47200        0.05200
N          0.01700        7.86900        0.21100
C          1.02400        5.76800       -0.54500
C          2.21700        6.42900       -1.18500
C          1.00200        4.35600       -0.57000
H         -3.37800       -0.02400       -0.06800
H         -2.66500       -1.35500        0.84100
H         -2.62500       -1.35700       -0.94900
H         -2.15200        1.90400       -0.05800
H          2.14000        1.91100        0.06900
H          3.37200       -0.01200       -0.06500
H          2.61700       -1.34500       -0.93900
H          2.67100       -1.35000        0.85100
H          0.84000       -2.59700        0.19600
H         -0.83800       -2.60000        0.19000
H         -1.82400        3.79100        1.19400
H         -2.89400        5.69600        1.83900
H         -2.76200        7.03500        0.70100
H         -1.82000        7.04500        2.22300
H         -0.88300        8.30100        0.37900
H          0.52100        8.35200       -0.52300
H          2.20100        7.51900       -1.13400
H          2.26800        6.15300       -2.24400
H          3.13500        6.09800       -0.68800
H          1.81400        3.84400       -1.08200
