23
55-10-7.pdb
C          4.21500        3.77700       -4.77300
O          4.02900        5.18500       -4.75800
C          3.56700        5.73000       -3.58600
C          3.29300        5.00600       -2.42100
C          2.81600        5.64300       -1.26100
C          2.60500        7.02800       -1.29000
C          2.87300        7.76400       -2.44300
C          3.35000        7.11300       -3.58200
O          3.60000        7.84200       -4.71900
C          2.48100        4.85800       -0.01200
O          3.33200        3.68300        0.08400
C          0.98300        4.40800        0.01700
O          0.84500        3.14000        0.01500
O          0.11100        5.31500        0.10900
H          4.54800        3.49500       -5.77700
H          3.27700        3.24700       -4.57700
H          4.99700        3.47600       -4.06900
H          3.43100        3.93000       -2.37700
H          2.20200        7.52800       -0.41100
H          2.69200        8.83300       -2.43600
H          3.25400        8.73500       -4.57900
H          2.68800        5.45600        0.88300
H          2.65500        2.96400        0.14200
