19
550-44-7.pdb
C          3.09300        0.00600        0.04900
N          1.65200        0.01300        0.00700
C          0.88200        1.14400        0.00100
O          1.22100        2.31100        0.00700
C         -0.51000        0.69300       -0.00800
C         -1.68500        1.41900       -0.00300
C         -2.88200        0.69500        0.01000
C         -2.87500       -0.71600        0.01400
C         -1.67100       -1.42700        0.00500
C         -0.50300       -0.69000       -0.00500
C          0.89300       -1.12400        0.00400
O          1.24900       -2.28600        0.01400
H          3.49200        1.02300        0.02800
H          3.47000       -0.56300       -0.80600
H          3.41300       -0.49800        0.96600
H         -1.67600        2.50400       -0.00200
H         -3.83300        1.22600        0.02100
H         -3.82000       -1.25600        0.02800
H         -1.65000       -2.51300        0.01200
