26
551-08-6.pdb
C          0.80300       -0.83600        1.92700
C          2.31600       -0.94600        2.03200
C          2.95900       -1.06200        0.65000
C          4.44500       -1.23700        0.73800
C          5.14600       -2.37700        0.81700
O          6.55400       -2.32700        0.84900
C          7.02200       -3.61500        0.92300
O          8.18800       -3.96100        0.96100
C          5.86900       -4.50500        0.95600
C          5.87100       -5.88800        1.05200
C          4.63700       -6.53600        1.08500
C          3.44900       -5.79100        1.02800
C          3.48300       -4.39400        0.93600
C          4.71300       -3.75500        0.89300
H          0.35900       -0.73900        2.92200
H          0.38000       -1.72700        1.45100
H          0.51400        0.03900        1.33600
H          2.56700       -1.81900        2.64600
H          2.70800       -0.06500        2.55500
H          2.75500       -0.15000        0.07500
H          2.50300       -1.87100        0.07100
H          5.01300       -0.30700        0.71500
H          6.80200       -6.44300        1.10400
H          4.59100       -7.62000        1.16200
H          2.49000       -6.30400        1.05900
H          2.54900       -3.84600        0.90800
