46
5519-23-3.pdb
C          1.02300       -0.03000       -0.00900
C          2.54200       -0.02600        0.00000
C          3.08300        0.67800        1.24200
C          4.61000        0.68400        1.24300
C          5.14800        1.39400        2.47900
C          6.67500        1.41500        2.48100
C          7.18400        2.11500        3.73500
C          8.71100        2.13700        3.80300
C          9.22900        2.82800        5.06800
C          8.75700        2.12500        6.33700
O          9.30900        2.76800        7.48400
C          8.96900        2.20500        8.68700
C          8.11400        1.11600        8.87000
C          7.86700        0.61900       10.15200
C          8.47100        1.20900       11.26400
C          9.33500        2.29800       11.08600
C          9.56900        2.79800        9.80100
C          8.19600        0.61700       12.59800
O          8.23600        1.50300       13.61400
O          7.91600       -0.56000       12.75100
H          0.65200       -0.53700       -0.90500
H          0.63000        0.99100       -0.00600
H          0.62900       -0.55300        0.86800
H          2.90800        0.47800       -0.90200
H          2.90800       -1.05800       -0.03200
H          2.71500        0.17200        2.14300
H          2.71000        1.70900        1.27500
H          4.97900        1.18600        0.34100
H          4.98400       -0.34700        1.21800
H          4.78300        0.88600        3.38100
H          4.76500        2.42200        2.51300
H          7.04600        1.93000        1.58700
H          7.05700        0.38700        2.45100
H          6.77200        1.58600        4.60100
H          6.80100        3.14200        3.77100
H          9.10900        2.65800        2.92400
H          9.09600        1.11100        3.76500
H          8.91100        3.87700        5.08600
H         10.32600        2.84800        5.04900
H          9.08100        1.07800        6.30100
H          7.66600        2.18300        6.40100
H          7.62500        0.61800        8.03700
H          7.21000       -0.24200       10.27600
H          9.86400        2.74700       11.92100
H         10.23800        3.64400        9.66100
H          8.28500        2.43800       13.34600
