17
552-16-9.pdb
O          1.20500       -0.29900        0.13500
C          2.52700       -0.12400       -0.07500
O          3.09500       -0.50500       -1.08200
C          3.25000        0.53100        1.03900
C          2.88000        0.29000        2.37300
C          3.63800        0.81900        3.42500
C          4.78700        1.56800        3.16600
C          5.17200        1.81400        1.84800
C          4.39300        1.30200        0.80000
N          4.76300        1.68500       -0.55000
O          3.97300        2.42700       -1.14400
O          5.88400        1.33900       -0.94400
H          0.81800        0.16000        0.90100
H          2.02900       -0.34100        2.62000
H          3.34500        0.62800        4.45300
H          5.38200        1.95900        3.98900
H          6.06400        2.40400        1.64500
