22
552-63-6.pdb
O          2.65700        1.39600       -0.28700
C          2.42800        0.00500       -0.02800
C          3.03100       -0.86600       -1.13900
C          2.42600       -0.53200       -2.50200
O          2.10900        0.77100       -2.69000
O          2.26300       -1.36200       -3.38600
C          4.55600       -0.90400       -1.12900
C          5.22500       -1.87200       -0.35800
C          6.62300       -1.97700       -0.38800
C          7.36800       -1.10400       -1.17600
C          6.72300       -0.11600       -1.91100
C          5.32800       -0.01000       -1.88400
H          2.42600        1.87400        0.53400
H          1.34200       -0.13400        0.00700
H          2.84600       -0.24700        0.95300
H          2.68400       -1.89000       -0.93700
H          2.33600        1.32500       -1.90400
H          4.66700       -2.57200        0.25800
H          7.12200       -2.74800        0.19200
H          8.45000       -1.20400       -1.22400
H          7.30500        0.57200       -2.52300
H          4.86200        0.77200       -2.47900
