27
552-82-9.pdb
C          1.11900       -0.09300       -0.00500
N          2.58700       -0.04000        0.00600
C          3.23200        0.28300        1.22600
C          4.50400       -0.23600        1.53100
C          5.17300        0.07900        2.71900
C          4.57300        0.91200        3.65400
C          3.31500        1.43900        3.39000
C          2.66000        1.13800        2.18700
C          3.22000       -0.45200       -1.20000
C          4.43800        0.12700       -1.60100
C          5.11800       -0.30400       -2.74500
C          4.58400       -1.31800       -3.53200
C          3.36400       -1.88500       -3.18100
C          2.69000       -1.45300       -2.03200
H          0.64400        0.24900        0.91800
H          0.75600       -1.11700       -0.13600
H          0.72400        0.53300       -0.81500
H          4.99400       -0.91800        0.84000
H          6.16000       -0.33400        2.90800
H          5.08500        1.15100        4.58200
H          2.83500        2.09000        4.11600
H          1.70100        1.61700        2.01500
H          4.87200        0.93300       -1.01400
H          6.06700        0.15200       -3.01400
H          5.11500       -1.66600       -4.41300
H          2.93800       -2.67900       -3.79100
H          1.76000       -1.95500       -1.78700
