22
552-41-0.pdb
C          0.93000        0.00500        0.03500
O          2.34800       -0.04100       -0.07200
C          3.00500        1.15900       -0.08800
C          2.41200        2.41700       -0.01900
C          3.20600        3.56900       -0.02800
C          4.60600        3.48000       -0.10000
C          5.35400        4.76700       -0.09600
C          6.65000        4.90100       -0.85200
O          4.88700        5.72600        0.51700
C          5.19600        2.21500       -0.14700
O          6.54200        1.99900       -0.13600
C          4.39900        1.06700       -0.16400
H          0.56100       -1.02500        0.03800
H          0.48800        0.51500       -0.82700
H          0.62000        0.47200        0.97600
H          1.33600        2.54200        0.04700
H          2.72400        4.54300        0.02500
H          6.86000        4.04500       -1.49200
H          7.46600        5.03600       -0.13700
H          6.58400        5.78000       -1.49900
H          6.93200        2.55500        0.56000
H          4.86800        0.08400       -0.20700
