27
5524-05-0.pdb
C          2.06800       -1.26100        0.02800
C          0.68100       -0.75300        0.40600
C         -0.41700       -1.49500       -0.35800
C         -1.80700       -1.00200        0.05200
C         -1.96500        0.51700       -0.15800
C         -0.83700        1.31400        0.51100
C          0.51400        0.73800        0.13800
O          1.42700        1.45100       -0.27100
C         -3.33900        1.00500        0.28600
C         -3.76800        0.81300        1.71700
C         -4.18200        1.60100       -0.57500
H          2.16000       -2.33000        0.24300
H          2.84000       -0.73700        0.60300
H          2.28000       -1.10400       -1.03500
H          0.54800       -0.90200        1.48500
H         -0.34700       -2.57200       -0.16400
H         -0.28800       -1.35500       -1.43900
H         -1.97700       -1.27000        1.10200
H         -2.56400       -1.53700       -0.53600
H         -1.87000        0.68700       -1.24100
H         -0.90900        1.30000        1.60400
H         -0.87100        2.36200        0.18900
H         -2.96400        0.41700        2.34300
H         -4.60600        0.10900        1.77100
H         -4.08100        1.76600        2.15700
H         -3.92300        1.76200       -1.61700
H         -5.16400        1.94200       -0.25800
