47
55268-74-1.pdb
O          0.88200        0.24500        0.36600
C          1.89400        0.87300        0.66300
C          2.04500        2.36500        0.33400
N          2.66600        3.06600        1.47400
C          3.88000        2.45400        2.04100
C          4.22400        1.10400        1.38400
N          3.00600        0.29000        1.27800
C          2.71500       -0.63200        2.36200
C          3.88400       -1.54100        2.70900
C          5.21100       -0.83000        2.72300
C          6.31100       -1.45100        3.33500
C          7.57600       -0.86700        3.28300
C          7.75600        0.33800        2.61200
C          6.66800        0.96600        2.00500
C          5.38300        0.39700        2.05800
C          2.19100        4.20000        2.11200
O          2.85800        4.73000        3.00400
C          0.80600        4.74200        1.73600
C          0.65600        6.23200        2.08700
C          0.44800        6.51100        3.57500
C         -0.67100        5.66400        4.16400
C         -0.46800        4.18000        3.88000
C         -0.30500        3.90200        2.38500
H          1.06000        2.76400        0.09300
H          2.69200        2.48600       -0.54100
H          3.70000        2.31000        3.11500
H          4.70300        3.17100        1.94400
H          4.53000        1.29800        0.34500
H          1.83100       -1.23400        2.12100
H          2.44400       -0.01700        3.23100
H          3.94400       -2.35000        1.97100
H          3.69200       -1.99600        3.68800
H          6.18800       -2.40500        3.84300
H          8.42200       -1.36100        3.75400
H          8.74500        0.78500        2.55600
H          6.83800        1.90300        1.47600
H          0.71600        4.68500        0.64600
H         -0.21200        6.62600        1.54100
H          1.52800        6.79300        1.73100
H          0.21800        7.57300        3.71500
H          1.37400        6.32400        4.12900
H         -1.63200        5.98900        3.74700
H         -0.72300        5.82900        5.24700
H         -1.32600        3.61700        4.26500
H          0.41400        3.81900        4.42300
H         -1.25500        4.12700        1.88300
H         -0.12400        2.83000        2.24600
