15
55279-29-3.pdb
N          2.40400       -0.16400       -0.21500
C          1.02300       -0.02600       -0.01000
C          0.18600       -1.13900       -0.05500
N         -1.16900       -1.09700       -0.01500
C         -1.73900        0.12200        0.02700
C         -1.02000        1.30100        0.03500
C          0.37500        1.21800        0.00500
C          1.13300        2.49100        0.04100
O          2.35400        2.53800        0.14900
H          2.82000       -0.99600        0.18900
H          2.92000        0.69100        0.02700
H          0.60100       -2.14100       -0.14100
H         -2.82500        0.12400        0.04800
H         -1.54000        2.25200        0.06200
H          0.53600        3.41700       -0.00600
