14
553-90-2.pdb
C          1.15800       -0.12000        0.00100
O          2.58500       -0.11900        0.00500
C          3.14100       -0.88100       -0.96500
O          2.54300       -1.53800       -1.80100
C          4.68700       -0.80600       -0.87000
O          5.28400       -0.14800       -0.03500
O          5.24200       -1.56900       -1.83900
C          6.66900       -1.56600       -1.83700
H          0.81600        0.52200        0.81800
H          0.77400       -1.13000        0.17100
H          0.77600        0.28700       -0.94100
H          7.01100       -2.20900       -2.65300
H          7.05300       -1.96900       -0.89500
H          7.05100       -0.55500       -2.01000
