20
553-03-7.pdb
O          3.22900        0.64400        0.05900
C          2.08600        0.20000       -0.03900
C          1.80400       -1.22900       -0.43900
C          0.55400       -1.76200        0.24300
C         -0.59100       -0.80300        0.07000
C         -1.91600       -1.24900        0.03700
C         -2.96000       -0.32800       -0.05200
C         -2.68800        1.04100       -0.08300
C         -1.37000        1.49400       -0.02500
C         -0.32700        0.57100        0.03900
N          0.99600        1.02000        0.09000
H          2.66500       -1.85300       -0.17900
H          1.68700       -1.24900       -1.53000
H          0.73700       -1.89200        1.31700
H          0.30300       -2.74300       -0.17600
H         -2.14200       -2.31200        0.08400
H         -3.98900       -0.67700       -0.08900
H         -3.50500        1.75500       -0.15000
H         -1.17100        2.56100       -0.04800
H          1.19500        2.00400        0.21800
