15
55321-99-8.pdb
N          3.14000        0.52000        1.13700
C          2.36400       -0.01500        0.14000
O          1.15100        0.09000        0.11500
C          3.14100       -0.81000       -0.90300
N          4.23700       -1.40400       -0.48500
C          4.95100       -2.12200       -1.41200
C          4.61900       -2.24700       -2.70200
N          3.49600       -1.63700       -3.17900
C          2.67900       -0.88400       -2.36200
O          1.68900       -0.30300       -2.77200
H          2.66900        0.92200        1.93500
H          4.09200        0.18700        1.23900
H          5.84700       -2.61500       -1.03700
H          5.21200       -2.82000       -3.40800
H          3.22700       -1.70600       -4.15300
