22
5537-71-3.pdb
C          3.66800       -0.83900       -0.22200
C          2.45400        0.04700        0.05800
C          1.31200       -0.79400        0.60500
N          0.36400       -1.49200        1.05800
C          2.78500        1.15200        1.05400
C          2.71900        2.49800        0.66400
C          2.97300        3.51700        1.58400
C          3.28100        3.20700        2.90800
C          3.34400        1.87400        3.32000
C          3.12500        0.84900        2.38800
C          3.68000        1.58900        4.73800
O          3.13400        0.45300        5.22100
O          4.36300        2.33700        5.41600
H          3.42300       -1.61300       -0.95700
H          4.02000       -1.35200        0.68100
H          4.50200       -0.24900       -0.61500
H          2.11900        0.49000       -0.88800
H          2.46800        2.76900       -0.36100
H          2.92500        4.55800        1.27000
H          3.47200        4.00900        3.62100
H          3.22400       -0.19100        2.69300
H          2.44300        0.04400        4.66900
