16
554-01-8.pdb
C          0.95700       -0.11400        0.15000
C          2.43800        0.04800        0.07900
C          3.16100        1.18100        0.06000
N          2.62700        2.44300        0.11500
N          4.51700        1.07100       -0.02600
C          5.22200       -0.10300       -0.10100
O          6.44500       -0.05700       -0.20000
N          4.52200       -1.27800       -0.06200
C          3.23900       -1.19700        0.02700
H          0.42100        0.83800        0.12600
H          0.67400       -0.63000        1.07400
H          0.60200       -0.70900       -0.69700
H          1.65200        2.50600       -0.15900
H          3.19700        3.14000       -0.35500
H          5.09100        1.89800       -0.01300
H          2.66100       -2.13500        0.07500
