21
554-95-0.pdb
O          1.66600       -0.76100        0.51700
C          2.42700        0.19400       -0.05300
O          2.51200        0.35800       -1.25800
C          3.20700        1.01500        0.90100
C          2.72800        1.32800        2.17700
C          3.50600        2.10100        3.04900
C          4.75900        2.56900        2.63600
C          5.22400        2.29000        1.34000
C          4.45000        1.50800        0.47600
C          6.57600        2.78400        0.97600
O          6.77300        3.00400       -0.33600
O          7.42200        3.01300        1.82500
C          2.98100        2.31900        4.42000
O          3.37100        3.46600        5.00400
O          2.22100        1.52200        4.94200
H          1.78700       -0.91200        1.47400
H          1.74700        0.98500        2.50600
H          5.40500        3.11600        3.32000
H          4.81100        1.23200       -0.51400
H          6.00100        2.93700       -0.92600
H          3.86900        4.09900        4.45500
