26
55418-52-5.pdb
C          5.54900       -2.72900        1.05800
C          4.82300       -1.47700        0.64000
O          3.73200       -1.17800        1.12000
C          5.52400       -0.63200       -0.40200
C          4.72400        0.60500       -0.81100
C          5.42100        1.48400       -1.83200
C          5.16600        2.87600       -1.83300
C          5.76900        3.72600       -2.77100
C          6.61800        3.16100       -3.69600
O          7.29600        3.82200       -4.67200
C          8.02400        2.73300       -5.28000
O          7.72300        1.44700       -4.70200
C          6.86100        1.81100       -3.71600
C          6.27200        0.95100       -2.81400
H          4.94900       -3.28300        1.78700
H          6.50600       -2.46300        1.51300
H          5.71500       -3.36500        0.18400
H          5.69100       -1.28500       -1.26500
H          6.49700       -0.33200        0.00300
H          4.51400        1.20000        0.08800
H          3.75300        0.30300       -1.22600
H          4.48900        3.30700       -1.09700
H          5.57400        4.79300       -2.77000
H          9.09800        2.92300       -5.16700
H          7.78300        2.70000       -6.34900
H          6.48500       -0.10900       -2.89100
