43
55447-00-2.pdb
C          1.77600        4.64000        0.58200
C          1.56100        3.15100        0.27100
C          1.57300        2.29700        1.54900
C          0.17100        3.00400       -0.37400
O          2.52100        2.68000       -0.71400
C          3.84700        2.71900       -0.40900
O          4.30200        3.03300        0.68600
N          4.60900        2.35100       -1.47800
C          6.04500        2.72500       -1.52100
C          6.90700        1.66300       -2.23300
C          6.88900        0.25800       -1.63000
C          6.63500        0.09600       -0.25400
C          6.48800       -1.16600        0.30800
C          6.62800       -2.29700       -0.48600
C          6.97900       -2.18400       -1.83700
C          7.18400       -3.34300       -2.60200
C          7.57600       -3.26600       -3.93500
C          7.76200       -2.02200       -4.52500
C          7.54000       -0.85800       -3.78300
C          7.13600       -0.89900       -2.42600
C          6.31000        4.03500       -2.31900
O          5.47500        4.26500       -3.24600
O          7.32500        4.69700       -1.96500
H          1.00300        5.02100        1.25800
H          1.75600        5.23400       -0.33900
H          2.74400        4.83100        1.05500
H          0.88500        2.70200        2.30000
H          2.56000        2.23700        2.01300
H          1.27400        1.26600        1.33200
H         -0.62300        3.33400        0.30700
H         -0.02800        1.96400       -0.65300
H          0.09800        3.59400       -1.29500
H          4.13800        2.42000       -2.37100
H          6.40200        2.89500       -0.50000
H          7.95400        1.99100       -2.27000
H          6.54900        1.60300       -3.26900
H          6.51700        0.95900        0.39600
H          6.24700       -1.25800        1.36200
H          6.47800       -3.27200       -0.03400
H          7.05000       -4.32400       -2.15200
H          7.74300       -4.17200       -4.50800
H          8.08200       -1.94900       -5.56000
H          7.70900        0.09500       -4.27800
