44
5545-52-8.pdb
C         10.67300        1.97200       -1.16000
C         10.54400        2.84200        0.09600
C         11.27500        2.22700        1.29600
C         11.18300        4.20900       -0.21500
O          9.14200        3.08400        0.39300
C          8.33100        2.03600        0.70600
O          8.65400        0.85600        0.78300
C          6.90600        2.47900        0.88400
C          6.36600        2.04400        2.24600
N          4.90900        2.22700        2.44400
C          4.17500        3.17900        1.79300
O          3.56100        4.02800        2.43600
O          4.17500        3.03300        0.45600
C          3.31200        3.93300       -0.25700
C          1.90400        3.39800       -0.23900
C          0.88100        4.13500        0.37000
C         -0.41700        3.62800        0.43000
C         -0.70200        2.37900       -0.11800
C          0.31000        1.63500       -0.72500
C          1.60800        2.14200       -0.78800
C          7.11500        2.79300        3.36300
O          6.31200        3.47900        4.20900
O          8.33000        2.78200        3.49500
H         11.72100        1.83000       -1.44100
H         10.14400        2.43500       -2.00100
H         10.23100        0.98200       -1.02300
H         12.33700        2.07500        1.07800
H         10.86000        1.25700        1.58200
H         11.19000        2.87200        2.17800
H         12.24200        4.10100       -0.48100
H         11.11600        4.89000        0.64100
H         10.67400        4.70400       -1.04900
H          6.34800        2.00400        0.06900
H          6.83000        3.56400        0.75300
H          6.54200        0.97500        2.42100
H          4.39700        1.35300        2.49200
H          3.66400        3.99500       -1.29400
H          3.38000        4.95000        0.15100
H          1.09400        5.10200        0.82400
H         -1.20000        4.20400        0.91600
H         -1.71200        1.98200       -0.06600
H          0.08600        0.65700       -1.14400
H          2.39100        1.54700       -1.25200
H          5.36500        3.39900        3.95400
