18
555-21-5.pdb
O          1.18000       -0.51100       -0.33500
N          2.23500        0.01900        0.04000
O          2.65300        1.11500       -0.36200
C          3.04600       -0.69900        1.03200
C          2.61500       -1.93900        1.51900
C          3.39500       -2.62100        2.45800
C          4.60100       -2.06900        2.92100
C          5.45300       -2.80700        3.93000
C          6.45200       -3.68600        3.30300
N          7.25000       -4.38300        2.83000
C          5.02100       -0.82600        2.41900
C          4.24800       -0.13800        1.48100
H          1.68300       -2.38600        1.17800
H          3.05200       -3.58900        2.82300
H          4.80600       -3.39100        4.59500
H          5.95700       -2.07700        4.57400
H          5.95800       -0.38300        2.75400
H          4.59600        0.82400        1.11100
