15
555-15-7.pdb
O          1.10300       -0.41800       -0.25100
N          2.44300       -0.50500        0.14600
C          3.19800       -0.54400       -0.90700
C          4.62500       -0.61800       -0.77600
O          5.38600       -0.59900       -1.91500
C          6.68300       -0.65200       -1.50700
C          6.78400       -0.71700       -0.13800
C          5.44800       -0.69900        0.33500
N          7.67900       -0.61900       -2.53000
O          8.85700       -0.61700       -2.14700
O          7.29900       -0.59500       -3.70800
H          0.63300       -0.36200        0.60200
H          2.77500       -0.51300       -1.92600
H          7.69700       -0.76600        0.44100
H          5.10900       -0.73100        1.36300
