25
555-57-7.pdb
C          2.72900        0.00700        1.33500
N          2.45400       -0.23400       -0.08800
C          0.99300       -0.30700       -0.28400
C          0.63300       -0.64200       -1.67300
C          0.37400       -0.87300       -2.82200
C          3.05000        0.83100       -0.92400
C          4.56500        0.89500       -0.85700
C          5.34700       -0.21400       -1.20900
C          6.74000       -0.15200       -1.12800
C          7.36600        1.01400       -0.69000
C          6.59900        2.12900       -0.35900
C          5.20600        2.07400       -0.44900
H          2.35700       -0.82300        1.94500
H          2.26300        0.93300        1.69100
H          3.80400        0.06800        1.53600
H          0.51300        0.63800       -0.00200
H          0.57500       -1.08500        0.36900
H          0.17800       -1.05100       -3.85500
H          2.61800        1.80400       -0.65400
H          2.81200        0.66900       -1.98200
H          4.86700       -1.13300       -1.53800
H          7.33500       -1.02200       -1.39500
H          8.44900        1.05200       -0.61100
H          7.08600        3.03900       -0.02000
H          4.62500        2.95600       -0.19400
