29
55516-54-6.pdb
N          5.32700       -0.02400        1.49500
C          4.42100       -1.19200        1.13700
C          2.95300       -0.75600        1.17900
C          2.51700       -0.26100        2.55100
C          2.63100        1.11900        2.81500
C          2.28200        1.63900        4.05500
C          1.80600        0.79200        5.05100
C          1.67400       -0.58400        4.82500
C          1.19000       -1.41000        5.85200
C          1.04100       -2.78000        5.66000
C          1.37200       -3.34100        4.43400
C          1.86000       -2.53300        3.40200
C          2.02700       -1.13700        3.56400
C          4.74300       -1.68100       -0.30200
O          5.66800       -0.97100       -0.81500
O          4.09300       -2.65600       -0.73300
H          5.15800        0.39900        2.40700
H          5.25200        0.63800        0.70800
H          6.29000       -0.36700        1.38500
H          4.64800       -1.98000        1.86100
H          2.29400       -1.57000        0.85600
H          2.77700        0.03700        0.43800
H          2.98500        1.80400        2.04800
H          2.36800        2.70500        4.24900
H          1.52600        1.22000        6.01200
H          0.92300       -0.98800        6.81900
H          0.66400       -3.40600        6.46600
H          1.24800       -4.41000        4.27500
H          2.09600       -3.02400        2.46000
