40
55533-24-9.pdb
C          3.17700        2.03600       -4.81200
C          2.29800        2.66100       -3.71700
C          1.96100        4.13600       -3.98600
C          0.96800        1.88600       -3.70200
O          2.93100        2.49000       -2.41200
C          4.13000        3.09600       -2.22900
O          4.70500        3.81600       -3.03500
N          4.67700        2.80400       -1.00800
C          6.13000        3.01900       -0.81500
C          7.03200        2.17700       -1.75200
C          6.85700        0.69700       -1.49900
C          5.98500       -0.06000       -2.28800
C          5.66700       -1.37100       -1.92500
C          6.24400       -1.96200       -0.79900
N          5.72300       -3.15700       -0.29100
C          7.15400       -1.21900       -0.04400
C          7.47800        0.09100       -0.40100
C          6.53800        4.50500       -0.87500
O          5.52000        5.35200       -0.58000
O          7.68300        4.90200       -1.03300
H          2.70600        2.11200       -5.79500
H          3.35800        0.97700       -4.59100
H          4.16200        2.50300       -4.88300
H          1.44400        4.25700       -4.94300
H          2.84200        4.78000       -4.01100
H          1.31700        4.53300       -3.19200
H          0.50100        1.89300       -4.69500
H          0.25400        2.32500       -2.99500
H          1.11400        0.84300       -3.40000
H          4.25800        1.99800       -0.55800
H          6.31800        2.72600        0.22700
H          8.08800        2.43000       -1.59600
H          6.83200        2.40200       -2.80700
H          5.50900        0.37900       -3.16200
H          4.93600       -1.91700       -2.51500
H          5.31500       -3.76900       -0.99000
H          6.33500       -3.64500        0.35400
H          7.59900       -1.64600        0.85100
H          8.18300        0.64800        0.21300
H          4.68100        4.85600       -0.50400
