11
556-90-1.pdb
N          1.18400       -0.12200        0.28100
C          2.52300       -0.08900        0.12100
N          3.29200       -1.11900        0.06800
C          4.61400       -0.77500       -0.11000
O          5.53000       -1.58900       -0.12500
C          4.85800        0.70400       -0.32600
S          3.24700        1.47900       -0.06400
H          0.75700       -1.01600        0.06600
H          0.67700        0.68700       -0.05600
H          5.19400        0.87200       -1.35200
H          5.59000        1.07600        0.39400
