20
556-48-9.pdb
O          1.05200        0.10300        0.10000
C          2.47600        0.10800        0.06100
C          2.95400        1.14900       -0.95300
C          2.58900        0.76400       -2.39000
C          3.05600       -0.64600       -2.75000
O          4.48000       -0.67700       -2.85000
C          2.57400       -1.68100       -1.73400
C          2.95100       -1.30100       -0.29800
H          0.76000        0.99700        0.35100
H          2.83400        0.36900        1.06300
H          4.04000        1.27100       -0.86900
H          2.50200        2.12200       -0.73000
H          3.03800        1.49300       -3.07400
H          1.50100        0.82500       -2.51500
H          2.67200       -0.91000       -3.74200
H          4.86200       -0.47600       -1.98200
H          3.00300       -2.66300       -1.96400
H          1.48300       -1.77600       -1.80700
H          4.03800       -1.36800       -0.17100
H          2.50000       -2.03200        0.38300
