19
55682-11-6.pdb
C          1.23000        0.29500        0.99200
C          2.59300        0.23500        0.37200
O          3.01800        1.03800       -0.44600
O          3.27400       -0.86200        0.89500
C          4.67400       -0.89400        0.75900
C          5.45200        0.23500        1.01200
C          6.84200        0.13800        0.98800
C          7.44900       -1.09400        0.73300
C          6.66500       -2.23000        0.49600
C          5.26800       -2.13200        0.51300
C          7.29600       -3.49700        0.26300
N          7.81600       -4.51700        0.08400
H          0.75500        1.24400        0.72500
H          1.31900        0.25800        2.08100
H          0.61700       -0.52900        0.62400
H          4.99200        1.19400        1.23500
H          7.44800        1.01900        1.18000
H          8.53500       -1.16000        0.73000
H          4.64900       -3.01100        0.34800
