24
557-48-2.pdb
C          1.58800       -0.34400        1.14600
C          2.42700        0.06900       -0.05300
C          3.05800        1.41700        0.14900
C          4.37600        1.67200        0.18300
C          5.45200        0.62400        0.05400
C          6.88400        1.17200        0.13600
C          7.18900        1.82200        1.45800
C          7.55200        3.10900        1.56500
C          7.80300        3.71800        2.88400
O          8.13200        4.89400        2.98700
H          1.16700       -1.34100        0.98300
H          0.75700        0.35100        1.30500
H          2.18900       -0.37600        2.06000
H          1.79400        0.11000       -0.94600
H          3.17900       -0.70500       -0.23800
H          2.36900        2.25500        0.25900
H          4.68900        2.70600        0.31800
H          5.34200        0.12400       -0.91500
H          5.31400       -0.13100        0.83800
H          7.05800        1.86900       -0.69300
H          7.58400        0.33900       -0.00300
H          7.08600        1.19600        2.34300
H          7.66300        3.76300        0.71100
H          7.67300        3.06400        3.76100
