22
5580-34-7.pdb
C          1.83800        1.56800       -0.02500
C          0.60700        0.69200       -0.01700
C         -0.64000        1.32300       -0.04600
C         -1.81400        0.57800       -0.03900
C         -1.74500       -0.81100       -0.00200
C         -0.50800       -1.48200        0.03600
C         -0.63200       -2.97000        0.11700
N          0.27500       -3.75000       -0.53800
O         -1.57800       -3.49700        0.69700
C          0.69300       -0.73100        0.04400
C          2.06400       -1.35300        0.13200
H          1.57400        2.63000       -0.09100
H          2.46700        1.33500       -0.89000
H          2.41200        1.43600        0.89800
H         -0.71400        2.40900       -0.06300
H         -2.78100        1.07500       -0.05000
H         -2.67300       -1.38000        0.00500
H          0.93500       -3.38200       -1.20600
H          0.08600       -4.74500       -0.54800
H          2.05100       -2.39800        0.44300
H          2.67000       -0.84200        0.88700
H          2.57000       -1.27900       -0.83700
