21
5591-70-8.pdb
N         -2.29800       -1.28700       -1.18900
C         -1.22400       -0.71300       -0.60400
N         -1.15900        0.64600       -0.43800
N         -0.06600        1.06800        0.21700
C          0.60700       -0.06300        0.43900
C         -0.05300       -1.21500       -0.06200
C          0.35200       -2.61400        0.00200
C          1.13500       -3.07100        1.07300
C          1.52300       -4.41300        1.15500
C          1.12900       -5.31500        0.17000
C          0.36700       -4.87400       -0.90800
C         -0.00500       -3.53000       -0.99900
H         -3.16100       -0.77700       -1.35800
H         -2.45800       -2.28500       -1.06200
H         -1.84100        1.33500       -0.73000
H          1.55600       -0.00600        0.95800
H          1.44700       -2.39400        1.86400
H          2.13000       -4.75100        1.99000
H          1.42100       -6.36000        0.24000
H          0.06600       -5.57200       -1.68400
H         -0.56400       -3.20400       -1.87200
