15
56-06-4.pdb
N          1.01400        0.12600       -0.14400
C          2.38300        0.09200       -0.04300
C          3.06900       -1.06100       -0.02300
C          4.55500       -1.03500        0.06600
O          5.15600       -2.10800        0.05400
N          5.19100        0.18500        0.16400
C          4.45300        1.24600        0.14500
N          5.00400        2.48000        0.25100
N          3.10300        1.25000        0.04200
H          0.55600       -0.74200        0.12000
H          0.58900        0.93700        0.29200
H          2.61100       -2.03700       -0.08000
H          6.01200        2.44300        0.11600
H          4.57900        3.20800       -0.30700
H          2.58900        2.11300        0.07000
