15
56-04-2.pdb
C          0.97300       -0.05600        0.05200
C          2.47000       -0.12000        0.05200
C          3.15100       -1.27300        0.05200
C          4.62800       -1.24500        0.05300
O          5.28000       -2.28200        0.05400
N          5.20200       -0.00400        0.05300
C          4.51000        1.17200        0.05300
S          5.28000        2.64500        0.05300
N          3.14700        1.07700        0.05300
H          0.52300       -1.05400        0.05000
H          0.61300        0.47400       -0.83700
H          0.61300        0.47200        0.94100
H          2.68200       -2.24800        0.05100
H          6.21100        0.02900        0.05400
H          2.62800        1.95000        0.05300
