16
56-12-2.pdb
N          1.09400        0.01900        0.02100
C          2.55000       -0.00500        0.01800
C          3.05000       -1.23500       -0.73500
C          4.57400       -1.26000       -0.78100
C          5.10800       -2.50000       -1.45100
O          4.78000       -2.60500       -2.75500
O          5.81100       -3.32500       -0.88400
H          0.76900        0.83400        0.54200
H          0.73500       -0.79300        0.52400
H          2.91900       -0.01000        1.04900
H          2.91900        0.90600       -0.46400
H          2.64300       -1.23400       -1.75400
H          2.68100       -2.15000       -0.25400
H          4.97400       -1.24000        0.24000
H          4.97700       -0.38300       -1.30000
H          4.23800       -1.86900       -3.09400
