10
56-40-6.pdb
N          0.89000        0.11100        0.23100
C          2.36800        0.01300        0.08500
C          2.95600       -0.66500        1.32100
O          1.98100       -1.18600        2.11100
O          4.14700       -0.75300        1.57100
H          0.50300        0.30200       -0.69800
H          0.68700        0.96500        0.76300
H          2.79300        1.01400       -0.02200
H          2.60700       -0.60000       -0.78800
H          1.13000       -0.98800        1.64600
