13
56-41-7.pdb
C          1.06900        0.07200       -0.04700
C          2.58800        0.01900       -0.03100
N          3.16400        1.34600        0.32800
C          3.11100       -1.02200        0.97300
O          4.27300       -0.59900        1.54200
O          2.59700       -2.09900        1.22000
H          0.71000        0.79800       -0.78400
H          0.66400        0.34800        0.93300
H          0.65000       -0.90600       -0.31000
H          2.97000       -0.26600       -1.01700
H          2.69400        1.67600        1.18000
H          2.87000        2.01700       -0.38800
H          4.44200        0.30500        1.17700
