14
56-45-1.pdb
N          0.88700       -0.06800        0.08400
C          2.38800       -0.04300       -0.00900
C          2.93700        1.32000        0.42200
O          2.40700        2.34300       -0.42300
C          2.97100       -1.14500        0.87900
O          1.98900       -1.85800        1.49100
O          4.15800       -1.36600        1.03100
H          0.55900        0.55200       -0.66800
H          0.61600        0.47000        0.91700
H          2.65500       -0.26600       -1.04700
H          4.03100        1.35600        0.38000
H          2.64100        1.55200        1.45200
H          2.90800        2.31800       -1.25800
H          1.13400       -1.51000        1.13300
