24
56-87-1.pdb
N          0.91600        0.02500        0.07300
C          2.37300        0.02400        0.08400
C          2.90100       -0.80600       -1.09000
C          4.43400       -0.83000       -1.09300
C          4.98300       -1.66400       -2.25800
C          6.52600       -1.71700       -2.29900
N          7.12500       -2.34700       -1.10200
C          7.03100       -2.46300       -3.56500
O          8.22800       -3.08500       -3.39900
O          6.44000       -2.49000       -4.63000
H          0.57000        0.55200        0.87700
H          0.56700       -0.92700        0.18500
H          2.72900       -0.39100        1.03100
H          2.73400        1.05200        0.00900
H          2.53500       -0.39200       -2.03500
H          2.52600       -1.83400       -1.01500
H          4.77600       -1.24200       -0.13700
H          4.81700        0.19700       -1.15900
H          4.60200       -1.23000       -3.19700
H          4.56700       -2.67900       -2.21100
H          6.91000       -0.69700       -2.40300
H          6.67000       -3.26300       -0.96000
H          6.84100       -1.79700       -0.28600
H          8.54600       -2.95600       -2.47600
