20
56-91-7.pdb
N          3.59400        0.75300       -0.64800
C          2.51600       -0.05400       -0.09300
C          2.90100       -0.66600        1.23200
C          3.26600        0.15300        2.31100
C          3.56500       -0.40100        3.55700
C          3.50400       -1.78600        3.74700
C          3.13900       -2.61300        2.67700
C          2.84700       -2.05400        1.42700
C          3.76500       -2.31000        5.11300
O          4.27700       -3.55800        5.14000
O          3.56100       -1.65700        6.12300
H          3.32400        1.07800       -1.57400
H          4.41700        0.16700       -0.77600
H          2.25000       -0.83700       -0.81300
H          1.62400        0.56600        0.05000
H          3.30800        1.23400        2.18100
H          3.82900        0.25500        4.38500
H          3.03100       -3.68700        2.80100
H          2.55100       -2.70900        0.60900
H          4.56900       -3.90500        4.27800
