18
56004-61-6.pdb
C          0.93000       -0.18000       -0.03600
C          0.62400        0.53100       -1.32800
C          0.24200       -0.22900       -2.44900
C         -0.04900        0.39300       -3.66400
C          0.03600        1.77900       -3.77900
C          0.41200        2.55000       -2.67700
C          0.70900        1.94300       -1.44500
C          1.10700        2.84100       -0.30100
H          2.01800        3.41200       -0.57900
H          0.28500        3.55700       -0.09000
H          1.32500        2.29100        0.63500
H          0.47200        3.62600       -2.78500
H         -0.19000        2.25900       -4.72200
H         -0.34100       -0.20300       -4.52000
H          0.17000       -1.30800       -2.38500
H          0.80900       -1.28000       -0.13300
H          0.23900        0.17000        0.76000
H          1.97900        0.02200        0.26500
