28
5608-24-2.pdb
O          2.39500       -1.27200        0.71700
C          2.28700       -0.04600       -0.00600
C          2.86400        1.17000        0.76800
C          4.23400        0.77800        1.39800
O          5.19700        0.36400        0.43000
N          2.93500        2.39200       -0.14800
C          1.58100        2.78100       -0.62400
C          0.63600        3.07900        0.55200
C          1.40800        2.97300        1.86800
C          2.64700        3.86700        1.83900
C          3.47500        3.56800        0.57900
C          1.92400        1.54700        1.93700
O          1.62400        0.80400        2.86100
H          1.82600       -1.92300        0.26900
H          1.22800        0.09300       -0.24900
H          2.83700       -0.19200       -0.94200
H          4.11900       -0.03400        2.12600
H          4.67300        1.60400        1.96600
H          5.02500       -0.58200        0.26300
H          1.15300        2.01300       -1.27700
H          1.65900        3.66800       -1.26800
H         -0.19600        2.36500        0.54400
H          0.21200        4.08400        0.44600
H          0.76900        3.18700        2.73300
H          3.26200        3.68600        2.73400
H          2.35400        4.92500        1.85300
H          4.53100        3.42900        0.82700
H          3.46700        4.44500       -0.08300
