28
56108-12-4.pdb
C          2.21500        1.38600       -0.83600
C          2.57700        0.10200       -0.05300
C          1.32900       -0.80800       -0.07900
C          3.71800       -0.59600       -0.82200
C          3.00400        0.37300        1.40200
C          3.11200        1.67500        1.92100
C          3.48700        1.90500        3.24900
C          3.75800        0.83700        4.10400
C          3.68000       -0.46700        3.60900
C          3.30900       -0.69100        2.27400
C          4.14100        1.14400        5.50800
N          3.91600        0.18000        6.45100
O          4.60200        2.23300        5.82600
H          1.89600        1.15300       -1.85800
H          3.07200        2.06500       -0.91400
H          1.39200        1.93000       -0.35600
H          1.00500       -1.00300       -1.10800
H          0.49000       -0.34300        0.45100
H          1.51500       -1.78300        0.38600
H          3.42400       -0.80200       -1.85900
H          3.99700       -1.55400       -0.37100
H          4.61700        0.03000       -0.85200
H          2.90900        2.55100        1.31100
H          3.55900        2.92800        3.61500
H          3.92700       -1.32000        4.23400
H          3.26500       -1.72100        1.92100
H          3.31100       -0.60900        6.28100
H          4.06400        0.46000        7.41200
