22
5617-70-9.pdb
C          0.85600       -0.09200        0.06700
C          2.37600       -0.08300       -0.12700
C          3.06300       -0.09800        1.23900
O          2.76500        1.13100       -0.76500
C          2.51300        1.21100       -2.09200
O          2.21400        2.26100       -2.63900
C          2.77100       -0.04100       -2.84800
C          2.59100       -0.01900       -4.36900
C          3.97400       -0.01500       -3.79700
C          2.53900       -1.32100       -2.12900
O          2.27300       -2.36200       -2.71200
O          2.77300       -1.27700       -0.79800
H          0.52000        0.80300        0.60200
H          0.53100       -0.98600        0.60900
H          0.33700       -0.10000       -0.89800
H          2.80700        0.79100        1.82500
H          4.15300       -0.10400        1.12000
H          2.79700       -0.99400        1.81100
H          2.23300        0.89100       -4.83800
H          2.25100       -0.92200       -4.86600
H          4.55100        0.90200       -3.87300
H          4.56900       -0.91700       -3.90200
