18
56278-50-3.pdb
N          1.40000        0.91700        1.06600
C          2.50800        0.52700        0.60700
C          3.84300        0.05600        0.05400
C          4.27400       -1.13200        0.84800
S          5.25700       -0.94100        2.24500
C          5.14800       -2.63300        2.55300
C          5.68800       -3.37900        3.61400
C          5.44100       -4.75500        3.64600
C          4.68400       -5.36900        2.65300
C          4.15800       -4.61700        1.59700
C          4.39100       -3.22900        1.54300
N          3.92400       -2.36800        0.56500
H          4.57400        0.87100        0.10400
H          3.72000       -0.22000       -0.99900
H          6.27300       -2.90200        4.39400
H          5.84300       -5.35300        4.46200
H          4.49500       -6.43900        2.69500
H          3.56200       -5.08900        0.82300
