34
56424-77-2.pdb
C          2.03300       -0.42100       -1.43600
C          2.52500        0.16000       -0.12300
O          3.23600        1.37000       -0.41900
C          4.56000        1.20100       -0.71700
O          5.20000        0.17900       -0.50600
C          5.07700        2.45800       -1.39200
O          6.41700        2.26800       -1.83000
C          6.99300        3.29500       -2.52700
C          6.59600        4.63200       -2.40000
C          7.28200        5.64900       -3.07200
C          8.37700        5.34800       -3.87200
C          8.78200        4.02400       -4.01100
C          8.08800        2.99100       -3.35400
C          8.54400        1.61600       -3.67300
O          9.71400        1.33600       -3.88800
O          7.46300        0.84200       -3.94000
C          7.71000       -0.29100       -4.77900
C          7.40700        0.13000       -6.20600
H          1.49000       -1.35600       -1.27900
H          2.86900       -0.60700       -2.11900
H          1.37300        0.29300       -1.94000
H          3.14300       -0.55700        0.43000
H          1.67600        0.42000        0.51600
H          5.01200        3.26600       -0.65600
H          4.43300        2.65100       -2.26000
H          5.76700        4.92800       -1.76600
H          6.96300        6.68300       -2.95600
H          8.92300        6.13700       -4.38400
H          9.63500        3.78700       -4.64600
H          7.03500       -1.09700       -4.47100
H          8.73500       -0.66900       -4.68800
H          6.36800        0.46800       -6.28700
H          7.56800       -0.69100       -6.91000
H          8.03500        0.97800       -6.50100
