21
565-67-3.pdb
C          0.98500       -0.06100        0.01900
C          2.50900       -0.06500        0.02200
C          3.09000       -0.39400        1.40400
O          2.62900       -1.69100        1.79300
C          4.63600       -0.37300        1.44500
C          5.21500        0.99200        1.06700
C          5.15200       -0.77000        2.83500
H          0.61200        0.20000       -0.97700
H          0.59600        0.67500        0.73000
H          0.57900       -1.04400        0.28200
H          2.84800        0.91900       -0.31700
H          2.85200       -0.80600       -0.71100
H          2.69700        0.31800        2.14000
H          2.97500       -2.33400        1.15100
H          5.01600       -1.12000        0.73700
H          4.83000        1.78100        1.72200
H          4.97700        1.25900        0.03300
H          6.30800        0.98800        1.15000
H          4.79700       -0.07300        3.60100
H          6.24700       -0.76800        2.85700
H          4.82200       -1.77600        3.11100
