26
56503-96-9.pdb
N         -0.68000        2.11400       -0.77200
C         -0.57600        0.86000       -0.31000
S          0.83600        0.30900        0.49000
C          0.15600       -1.26200        0.58100
C         -1.11500       -1.26600        0.03100
N         -1.52800       -0.02600       -0.43500
C         -1.97100       -2.45900       -0.04800
C         -1.88000       -3.41600        0.98500
C         -2.66900       -4.56100        0.98100
C         -3.58100       -4.76600       -0.04700
C         -3.71100       -3.83900       -1.09000
C         -4.65400       -4.07900       -2.10500
C         -4.81700       -3.19100       -3.16500
C         -4.02400       -2.05800       -3.23200
C         -3.07900       -1.81000       -2.23300
C         -2.90000       -2.67200       -1.11900
H         -0.06500        2.83000       -0.41100
H         -1.60800        2.42500       -1.03600
H          0.71600       -2.07600        1.01500
H         -1.19900       -3.27200        1.82100
H         -2.58300       -5.28800        1.78500
H         -4.19700       -5.66300       -0.02700
H         -5.28100       -4.96800       -2.07400
H         -5.55800       -3.38700       -3.93400
H         -4.13400       -1.35800       -4.05600
H         -2.47500       -0.91200       -2.34100
