25
5653-40-7.pdb
C          1.04000       -0.58400       -0.31300
O          2.38500       -0.20900       -0.04100
C          3.14700       -1.06400        0.70800
C          2.83400       -2.42600        0.85100
C          3.66900       -3.31300        1.54900
N          3.20800       -4.62700        1.77000
C          4.81000       -2.80000        2.18600
C          5.13500       -1.44300        2.04600
C          4.31200       -0.56900        1.31800
O          4.79600        0.71300        1.32700
C          4.07100        1.73100        0.65100
C          5.72600       -3.72300        2.91100
O          6.37200       -3.17000        3.95900
O          5.86700       -4.89500        2.59400
H          0.54900        0.26700       -0.79500
H          0.49800       -0.80300        0.61300
H          0.99500       -1.42600       -1.01100
H          1.93500       -2.83600        0.40300
H          2.65500       -5.01000        1.00900
H          3.97300       -5.26400        2.02500
H          6.05100       -1.04300        2.47500
H          4.58300        2.68000        0.83700
H          3.05600        1.83600        1.04700
H          4.07800        1.56400       -0.43000
H          6.05100       -2.29000        4.22600
