22
56539-66-3.pdb
C          1.01700       -0.01900       -0.18600
O          2.41000        0.13100        0.04300
C          2.80800        0.97500        1.13600
C          2.31300        2.41700        0.93200
C          2.29700        0.43600        2.48000
C          4.35500        0.99300        1.11000
C          5.00500       -0.38000        1.26300
O          6.42100       -0.24400        1.19400
H          0.88800       -0.69400       -1.03800
H          0.55000        0.93400       -0.44800
H          0.51500       -0.47000        0.67300
H          1.22300        2.48200        0.98800
H          2.60400        2.79300       -0.05600
H          2.72100        3.09100        1.69500
H          1.20700        0.51500        2.55600
H          2.72500        0.99400        3.32000
H          2.53600       -0.62500        2.60400
H          4.74500        1.66200        1.88800
H          4.69600        1.41700        0.15600
H          4.68800       -1.07500        0.47900
H          4.77100       -0.82600        2.23500
H          6.63500        0.04300        0.28900
