34
5655-61-8.pdb
C          1.06400       -0.87000       -0.69500
C          2.56100       -0.86000       -0.80500
O          3.17000       -0.63200       -1.83700
O          3.12700       -1.13700        0.40400
C          4.56400       -1.20400        0.42700
C          5.08000       -2.54400       -0.14500
C          5.83200       -3.16600        1.05400
C          4.75000       -3.61400        2.06500
C          4.28300       -2.28500        2.68600
C          5.11300       -1.23600        1.89600
C          5.13800        0.12700        2.56500
C          6.49400       -1.94600        1.74300
C          7.21900       -2.28900        3.06200
C          7.52800       -1.20600        0.87100
H          0.62900       -0.68800       -1.68500
H          0.73300       -0.07700       -0.02100
H          0.71500       -1.84500       -0.34400
H          4.97700       -0.34900       -0.12400
H          5.77200       -2.36100       -0.97500
H          4.28100       -3.19200       -0.51900
H          6.51200       -3.97100        0.76400
H          5.16400       -4.27800        2.83100
H          3.92400       -4.14400        1.58000
H          4.50500       -2.26000        3.75900
H          3.20200       -2.15000        2.59200
H          4.13300        0.55400        2.63500
H          5.76300        0.83100        2.00500
H          5.54500        0.06300        3.58000
H          6.60700       -2.82200        3.79400
H          7.57800       -1.37900        3.55500
H          8.09000       -2.92500        2.86400
H          7.15200       -0.87700       -0.10000
H          8.39100       -1.85400        0.67400
H          7.89800       -0.31100        1.38400
