31
56578-18-8.pdb
C          1.43300        1.18000        0.82100
C          2.76700        0.57100        0.43200
C          3.29700       -0.32300        1.54900
C          4.63600       -0.94300        1.15900
C          5.15000       -1.82800        2.25100
C          6.46000       -2.00300        2.48200
C          6.97800       -2.88200        3.57700
C          7.84100       -2.07800        4.54400
C          8.36800       -2.96800        5.66300
C          9.22900       -2.16900        6.62900
O          9.70800       -3.01800        7.66100
H          1.05700        1.82100        0.01800
H          1.53300        1.78800        1.72500
H          0.69000        0.39900        1.01200
H          3.48800        1.36900        0.22000
H          2.64900       -0.01300       -0.48800
H          2.56800       -1.11600        1.76000
H          3.40900        0.26200        2.47100
H          5.35800       -0.14700        0.94200
H          4.51300       -1.54100        0.24900
H          4.42000       -2.34500        2.86900
H          7.19200       -1.50500        1.85500
H          7.56500       -3.69200        3.12900
H          6.15000       -3.34800        4.12400
H          7.25400       -1.25600        4.97200
H          8.68300       -1.62400        4.00600
H          8.95300       -3.79800        5.24900
H          7.53400       -3.43000        6.20700
H          8.66000       -1.35100        7.08400
H         10.09300       -1.74000        6.11200
H          8.93400       -3.37800        8.12500
