37
5672-83-3.pdb
C          3.78800        3.27900       -2.18300
O          4.30900        2.81500       -0.93700
C          4.26700        1.46000       -0.76600
O          3.83400        0.68200       -1.61300
C          4.82100        1.02000        0.60400
C          3.73100        0.27100        1.38900
C          4.26000       -0.30900        2.70600
C          3.23200       -1.08200        3.53200
O          2.05000       -1.07600        3.09600
O          3.70500       -1.62200        4.57300
N          5.32400        2.11400        1.44100
C          6.61500        2.50000        1.57200
O          6.98100        3.11100        2.57300
O          7.39600        2.22700        0.50000
C          8.64300        2.92500        0.50500
C          9.79100        1.99000        0.23300
C         10.25900        1.79500       -1.07200
C         11.35900        0.97000       -1.31100
C         11.99400        0.32800       -0.24900
C         11.52300        0.49900        1.05100
C         10.42200        1.32200        1.29200
H          3.56100        4.34400       -2.07800
H          2.86200        2.76400       -2.46200
H          4.54200        3.16100       -2.96700
H          5.66100        0.34800        0.38900
H          2.89900        0.95700        1.60000
H          3.31400       -0.53600        0.77400
H          4.63300        0.49500        3.35400
H          5.10700       -0.97400        2.49700
H          4.75300        2.38400        2.22700
H          8.85000        3.47300        1.43300
H          8.59400        3.68700       -0.28200
H          9.77100        2.29100       -1.90800
H         11.71900        0.82900       -2.32600
H         12.85200       -0.31200       -0.43600
H         12.01000       -0.00800        1.88000
H         10.06100        1.45000        2.31200
