23
5673-07-4.pdb
C          3.26700        0.03000        1.17800
O          2.46400        0.09800        0.00100
C          3.11600       -0.19900       -1.17500
C          4.16200       -1.13000       -1.21900
C          4.79600       -1.40200       -2.41800
C          4.36500       -0.76000       -3.57400
C          3.28900        0.14700       -3.57000
O          3.06300        0.58400       -4.84400
C          2.03000        1.49000       -5.16600
C          2.64600        0.44900       -2.35500
C          1.44800        1.34700       -2.20100
H          2.78000        0.63600        1.95100
H          4.26900        0.44300        1.01900
H          3.32000       -1.00000        1.54200
H          4.48300       -1.66500       -0.33100
H          5.61300       -2.11700       -2.46100
H          4.86800       -0.98300       -4.51200
H          2.02100        1.59900       -6.25700
H          2.24000        2.48100       -4.75800
H          1.05100        1.10600       -4.87300
H          1.43200        2.17700       -2.90200
H          1.43400        1.83800       -1.22200
H          0.52900        0.76100       -2.30600
