25
5678-48-8.pdb
N          1.68500        0.74900        1.01500
C          2.52500       -0.03500        0.04400
C          3.66200       -0.64900        0.86100
C          4.53700        0.48800        1.36600
O          3.85100        1.47100        1.80400
O          5.77000        0.32200        1.26600
C          2.94600        0.76500       -1.19800
C          2.67900        2.15500       -1.25800
C          3.09500        2.94900       -2.33100
C          3.81600        2.39000       -3.37400
C          4.08800        1.02500       -3.36700
C          3.64000        0.21000       -2.30700
N          3.86200       -1.24000       -2.46200
O          3.11600       -2.00300       -1.83700
O          4.72500       -1.61200       -3.26900
H          0.90400        1.26000        0.60900
H          2.37300        1.43100        1.44400
H          1.38900        0.18500        1.81300
H          1.83000       -0.81600       -0.27700
H          3.26600       -1.18600        1.73200
H          4.25900       -1.36500        0.29100
H          2.17500        2.68200       -0.45200
H          2.88200        4.01600       -2.32900
H          4.17100        3.01600       -4.18900
H          4.65200        0.61000       -4.20100
