19
5683-43-2.pdb
C          1.09500        0.14200       -0.04300
C          2.56600        0.01200       -0.04200
O          3.29500        1.17400       -0.04200
C          4.59200        0.74800       -0.04100
C          5.73900        1.53400       -0.03900
C          6.95000        0.81700       -0.03700
C          6.98400       -0.59100       -0.03700
C          5.79300       -1.33400       -0.03900
C          4.57800       -0.63900       -0.04000
N          3.28700       -1.09300       -0.04200
N          8.21800        1.56200       -0.03500
O          8.15700        2.80000       -0.03500
O          9.27000        0.90900       -0.03400
H          0.78100        1.18900       -0.04400
H          0.67500       -0.34300        0.84300
H          0.67600       -0.34400       -0.93000
H          5.68100        2.61600       -0.03900
H          7.93100       -1.13000       -0.03600
H          5.80400       -2.41900       -0.03900
