25
5691-09-8.pdb
N          4.41500       -0.86600        1.86500
C          4.40100       -1.37400        0.47000
C          2.96500       -1.57900       -0.02700
C          2.17200       -2.64400        0.75600
C          2.64500       -4.07200        0.48700
C          2.70800       -4.40300       -1.00100
C          3.46100       -3.34700       -1.80900
C          2.97100       -1.92500       -1.52800
O          1.65800       -1.71600       -2.03400
H          5.36300       -0.57500        2.14000
H          4.11100       -1.57700        2.54200
H          3.80400       -0.04400        1.97800
H          4.99600       -2.29100        0.46600
H          4.91500       -0.61600       -0.13000
H          2.42500       -0.63000        0.10100
H          1.11300       -2.57100        0.47600
H          2.20700       -2.44500        1.83200
H          1.96300       -4.77500        0.98000
H          3.63100       -4.22600        0.93900
H          1.69000       -4.51200       -1.39300
H          3.19300       -5.37800       -1.13700
H          3.34800       -3.57500       -2.87600
H          4.53000       -3.41800       -1.57800
H          3.61200       -1.21400       -2.06300
H          1.16100       -2.55300       -2.05900
