22
5697-44-9.pdb
C          2.44700       -0.01200       -0.01100
C          0.94500        0.00800       -0.00400
C          0.24500        1.22100       -0.00500
C         -1.15300        1.24000       -0.01300
C         -1.85200        0.03000       -0.04200
C         -1.16700       -1.18700       -0.01500
C          0.22800       -1.19500       -0.00300
S         -3.63200       -0.00500       -0.04600
O         -4.01900       -1.27800        0.54100
O         -4.10100        1.23000        0.55600
C         -4.12000       -0.04600       -1.74700
C         -3.63300        1.17100       -2.37300
N         -3.24200        2.12100       -2.90400
H          2.86000        1.00200        0.00400
H          2.81300       -0.50800       -0.91600
H          2.82600       -0.54000        0.86900
H          0.78800        2.16500       -0.00300
H         -1.66500        2.20000       -0.01100
H         -1.70800       -2.13000       -0.00300
H          0.75300       -2.14800        0.00600
H         -5.21200       -0.09500       -1.78800
H         -3.70600       -0.94100       -2.21600
