18
57-00-1.pdb
C          1.06100       -0.20600        0.07100
N          2.51900       -0.19300       -0.09200
C          3.03200        1.04900       -0.73000
C          3.95200        0.80400       -1.92000
O          4.21400       -0.49400       -2.19000
O          4.43900        1.71100       -2.58700
C          3.31900       -0.95400        0.72200
N          2.72500       -1.95900        1.39700
N          4.59400       -0.87500        0.84700
H          0.55300        0.48200       -0.61700
H          0.79400        0.10000        1.09000
H          0.65400       -1.20100       -0.12500
H          3.57000        1.64700        0.01400
H          2.20500        1.65300       -1.12000
H          3.76600       -1.07800       -1.53500
H          1.85600       -1.74100        1.86000
H          3.38700       -2.37000        2.05200
H          5.00700       -0.12600        0.29300
