50
57-10-3.pdb
C          0.94600        0.06700       -0.07100
C          2.46100        0.05800       -0.07000
C          2.97900       -0.73800        1.11700
C          4.49700       -0.74500        1.12100
C          5.00900       -1.53900        2.30900
C          6.52600       -1.54400        2.31200
C          7.03600       -2.33900        3.49800
C          8.55300       -2.34200        3.50300
C          9.06300       -3.13900        4.68700
C         10.57900       -3.14200        4.69200
C         11.08800       -3.93900        5.87700
C         12.60400       -3.94400        5.88400
C         13.11800       -4.74200        7.07100
C         14.63900       -4.74400        7.07300
C         15.19700       -5.53900        8.25500
C         16.71200       -5.53700        8.25300
O         17.29000       -6.21700        9.26300
O         17.37800       -4.97300        7.41300
H          0.57200        0.63800       -0.92400
H          0.56400        0.52100        0.84800
H          0.55700       -0.95400       -0.13800
H          2.83600        1.08700       -0.02100
H          2.82900       -0.38200       -1.00400
H          2.60400       -1.76800        1.07000
H          2.60900       -0.30000        2.05300
H          4.87600        0.28300        1.17000
H          4.87100       -1.18700        0.18900
H          4.63300       -2.56800        2.26000
H          4.63600       -1.09900        3.24100
H          6.90200       -0.51500        2.36300
H          6.90000       -1.98300        1.38000
H          6.66100       -3.36900        3.44700
H          6.66100       -1.90100        4.43100
H          8.92800       -1.31300        3.55600
H          8.92800       -2.77900        2.56900
H          8.68800       -4.16900        4.63400
H          8.68800       -2.70200        5.62100
H         10.95400       -2.11300        4.74500
H         10.95400       -3.57900        3.75800
H         10.71300       -4.96900        5.82300
H         10.71300       -3.50200        6.81000
H         12.97900       -2.91400        5.93600
H         12.97900       -4.38000        4.94900
H         12.74100       -5.77200        7.01600
H         12.74100       -4.30300        8.00300
H         14.99400       -3.70200        7.11100
H         14.99400       -5.17200        6.12300
H         14.83500       -6.56900        8.18400
H         14.83500       -5.08400        9.18200
H         16.72000       -6.65700        9.91800
