31
57-41-0.pdb
O          2.24400        0.54000        0.04200
C          1.09200        0.13900        0.01100
N         -0.00800        0.91500       -0.06400
C         -1.13400        0.14800       -0.06900
O         -2.26300        0.62200       -0.11500
C         -0.73300       -1.36500        0.00100
N          0.71200       -1.16500        0.06100
C         -1.09600       -2.18000       -1.25000
C         -0.30800       -3.28900       -1.62600
C         -0.70500       -4.15400       -2.64700
C         -1.89700       -3.92700       -3.32500
C         -2.67100       -2.81500       -3.00700
C         -2.27500       -1.94700       -1.98200
C         -1.27700       -2.02200        1.28200
C         -2.66400       -2.04600        1.53600
C         -3.18500       -2.68800        2.66300
C         -2.33200       -3.31400        3.56600
C         -0.95900       -3.29200        3.34500
C         -0.43700       -2.66000        2.21300
H          0.00500        1.91700       -0.09500
H          1.40300       -1.89700        0.08900
H          0.61600       -3.52100       -1.10400
H         -0.09600       -5.02100       -2.88900
H         -2.22700       -4.62200       -4.09200
H         -3.60300       -2.63700       -3.53700
H         -2.93200       -1.11100       -1.74700
H         -3.36400       -1.56600        0.85200
H         -4.25900       -2.70200        2.83100
H         -2.73600       -3.82000        4.43800
H         -0.28900       -3.77500        4.05200
H          0.64100       -2.67900        2.07800
