45
57-50-1.pdb
O          4.93500        2.38700        4.08900
C          4.71800        0.97200        4.08200
C          3.76400        0.56700        2.93900
O          4.37400        0.95900        1.69600
C          3.56900        0.66200        0.55400
O          2.31700        1.37400        0.51800
C          2.43600        2.80400        0.30200
C          3.18200        3.14700       -1.01000
O          2.59400        2.52000       -2.14800
O          3.08200        3.43200        1.42700
C          2.12200        4.27700        2.10000
C          2.30800        4.30500        3.61400
O          3.58700        4.82300        3.95600
C          0.75500        3.74200        1.70700
O         -0.28500        4.68400        1.92800
C          1.00000        3.40800        0.24800
O         -0.01400        2.55500       -0.27400
C          3.31100       -0.85500        0.47300
O          2.48700       -1.20300       -0.65100
C          2.66500       -1.36200        1.76100
O          2.56800       -2.79800        1.73500
C          3.48100       -0.93400        2.98600
O          2.80200       -1.24500        4.20600
H          5.44100        2.57100        3.27300
H          4.31300        0.68800        5.05800
H          5.69900        0.49500        3.96200
H          2.83800        1.13900        3.06600
H          4.15000        0.90900       -0.33800
H          4.23900        2.87000       -0.96700
H          3.17400        4.23000       -1.17700
H          2.66000        1.55500       -2.03900
H          2.27400        5.29400        1.71400
H          2.21600        3.30200        4.04900
H          1.55300        4.94900        4.07800
H          4.15800        4.04600        4.11500
H          0.50000        2.83100        2.26400
H         -0.18500        5.42400        1.30300
H          0.98100        4.33400       -0.33600
H          0.39200        1.68900       -0.41900
H          4.26700       -1.37600        0.33300
H          1.58500       -0.87800       -0.46900
H          1.63100       -1.00700        1.84200
H          2.56300       -3.07700        0.79800
H          4.42400       -1.49800        2.99000
H          1.93200       -1.62500        3.99000
