33
57-68-1.pdb
C          0.14200        1.18200        2.26700
C          0.12700        0.38500        1.00000
C          0.02700        1.00000       -0.23500
C         -0.03000        0.17000       -1.34200
C         -0.10200        0.74500       -2.72600
N         -0.01700       -1.17500       -1.23600
C          0.12300       -1.65400        0.00100
N          0.08300       -3.03400        0.15400
S          1.54900       -3.81200        0.00900
O          1.25900       -5.23100        0.01400
O          2.32200       -3.23200       -1.07100
C          2.36700       -3.46200        1.54200
C          1.74900       -3.82300        2.74000
C          2.37300       -3.51800        3.95100
C          3.63000       -2.90500        3.97500
N          4.17900       -2.48200        5.19200
C          4.21700       -2.51700        2.76500
C          3.60200       -2.81200        1.54500
N          0.19500       -0.95300        1.13200
H          0.07300        2.25700        2.07400
H          1.06800        0.98900        2.81700
H         -0.70900        0.89500        2.89300
H         -0.01100        2.07800       -0.33100
H         -0.14000        1.83900       -2.70900
H         -0.99900        0.38200       -3.23700
H          0.78100        0.44700       -3.30000
H         -0.65800       -3.49400       -0.35900
H          0.77900       -4.31400        2.73600
H          1.86500       -3.76000        4.88000
H          3.89400       -3.04100        5.99000
H          5.18300       -2.35100        5.16200
H          5.16000       -1.97700        2.76300
H          4.08100       -2.51700        0.61500
