38
57-66-9.pdb
C          2.74400        0.85600       -1.20500
C          2.28300       -0.07600       -0.10100
C          2.98700       -1.43500       -0.08300
N          4.48300       -1.42900        0.19100
C          4.82100       -0.71800        1.47600
C          6.30900       -0.43800        1.71000
C          6.98100        0.37100        0.61300
S          5.11600       -3.06000        0.06600
O          6.41700       -3.15800        0.68500
O          4.05400       -3.97700        0.42800
C          5.42900       -3.25200       -1.68100
C          6.40700       -2.45300       -2.28200
C          6.77200       -2.68000       -3.61000
C          6.17000       -3.71300       -4.33900
C          5.21900       -4.53800       -3.72000
C          4.84100       -4.30300       -2.39100
C          6.62700       -3.93300       -5.73700
O          5.66500       -4.41500       -6.55300
O          7.74900       -3.66000       -6.11900
H          2.13300        1.76600       -1.20000
H          2.63200        0.38600       -2.18700
H          3.78800        1.14900       -1.07000
H          1.21000       -0.26200       -0.24600
H          2.35600        0.43000        0.86700
H          2.80900       -1.92500       -1.04700
H          2.49900       -2.03300        0.69700
H          4.40100       -1.27900        2.32000
H          4.33800        0.26200        1.47100
H          6.87300       -1.35400        1.88400
H          6.40700        0.12200        2.65200
H          6.71800        0.01900       -0.38400
H          8.06900        0.30800        0.71600
H          6.70000        1.42700        0.68200
H          6.92300       -1.68700       -1.71100
H          7.55100       -2.06900       -4.06600
H          4.80400       -5.40200       -4.23400
H          4.13800       -4.97600       -1.90400
H          4.76600       -4.42300       -6.17900
