18
570-23-0.pdb
N          1.75900       -1.30500       -0.11300
C          0.53500       -0.63000        0.03900
C         -0.67500       -1.32200       -0.05400
C         -1.89900       -0.63900       -0.03400
C         -1.91900        0.75300        0.01700
C         -0.72200        1.47100        0.06600
C         -0.79700        2.95200        0.07300
O          0.23800        3.55100        0.70300
O         -1.73000        3.56800       -0.41000
C          0.49400        0.77300        0.05600
O          1.67600        1.47400        0.04300
H          1.72500       -2.27600        0.19500
H          2.53100       -0.80500        0.31700
H         -0.67800       -2.40900       -0.13800
H         -2.82800       -1.19700       -0.09700
H         -2.87000        1.27600        0.00100
H          0.94500        2.92000        0.96600
H          2.05300        1.29500       -0.84300
