15
570-22-9.pdb
O          1.67600       -0.75900        0.56300
C          2.58700       -0.04200       -0.12600
O          2.94000       -0.36600       -1.25200
C          3.14500        1.08700        0.56500
N          4.24500        1.75300        0.05500
C          4.57300        2.77300        0.89700
N          3.74100        2.84400        1.91000
C          2.84800        1.79600        1.72200
C          1.77400        1.57200        2.67300
O          1.73100        2.51700        3.64300
O          1.00600        0.62200        2.60900
H          1.39300       -0.42100        1.44200
H          4.72400        1.49400       -0.80000
H          5.42000        3.42300        0.71800
H          2.46700        3.15100        3.46800
