27
570-02-5.pdb
C          1.34500        0.31400       -0.35900
O          2.52500       -0.13800        0.29300
C          3.17400       -1.20900       -0.25700
C          2.76800       -1.92700       -1.37800
C          3.52800       -3.01200       -1.84000
O          3.09900       -3.81600       -2.86400
C          2.33400       -3.19800       -3.89300
C          4.72300       -3.36700       -1.17700
C          5.55500       -4.48800       -1.72000
O          6.17000       -5.23100       -0.77200
O          5.66500       -4.74200       -2.91000
C          5.13800       -2.62900       -0.05000
O          6.29700       -3.01600        0.57100
C          6.99800       -2.04100        1.34400
C          4.33800       -1.58000        0.41700
H          1.00000        1.21400        0.16000
H          0.55300       -0.43900       -0.28800
H          1.54100        0.58600       -1.40100
H          1.84100       -1.67300       -1.87800
H          2.27200       -3.89800       -4.73100
H          2.81300       -2.28100       -4.25300
H          1.31200       -3.00100       -3.55500
H          6.13200       -4.81400        0.11300
H          6.86800       -2.26800        2.40600
H          6.71100       -1.00500        1.14100
H          8.06200       -2.12700        1.10300
H          4.59100       -1.03300        1.32000
