24
57213-48-6.pdb
N          1.00000       -0.07900       -0.01000
C          2.52000       -0.04800       -0.02000
C          3.03700        0.42100       -1.38100
C          2.63400       -0.48500       -2.52600
C          3.42700       -1.59000       -2.86500
C          3.06900       -2.42200       -3.92800
C          1.90900       -2.16500       -4.65900
C          1.10800       -1.06900       -4.33100
C          1.47200       -0.23000       -3.27000
C         -0.09000       -0.80600       -5.07300
N         -1.07600       -0.58800       -5.64200
C          3.02400        0.94600        1.06400
O          2.03800        1.47900        1.66300
O          4.26000        1.06800        1.19500
H          0.55600       -0.69400       -0.68800
H          0.69600        0.90400       -0.07300
H          0.73700       -0.30300        0.96100
H          2.84300       -1.06500        0.22300
H          4.13400        0.48500       -1.36700
H          2.69500        1.44300       -1.59200
H          4.34700       -1.79900       -2.31900
H          3.70300       -3.26500       -4.19600
H          1.64300       -2.81800       -5.48800
H          0.85500        0.63800       -3.03900
