36
57224-63-2.pdb
C          1.44900       -2.46500        2.20000
O          2.47700       -2.01800        1.31200
C          3.38700       -1.17400        1.88400
O          3.36900       -0.81200        3.05400
C          4.44100       -0.76800        0.85700
N          4.98100        0.54500        1.17400
C          4.83700        1.65000        0.40000
O          5.77600        2.38700        0.14000
O          3.53900        1.87300        0.08700
C          3.27500        3.23800       -0.26400
C          3.15600        4.11800        0.96400
C          4.04300        5.19000        1.14900
C          3.93500        6.02900        2.26000
C          2.92700        5.80300        3.21200
C          2.05600        4.73400        3.04700
C          2.16800        3.89000        1.93100
C          5.57000       -1.82400        0.81100
C          6.66100       -1.48700       -0.21200
O          6.20900       -1.96200        2.08400
H          0.62500       -2.85400        1.59600
H          1.06100       -1.64800        2.81600
H          1.83500       -3.27300        2.82800
H          3.95800       -0.70400       -0.12600
H          5.58500        0.65900        1.97900
H          2.32300        3.26500       -0.80600
H          4.03100        3.61800       -0.96300
H          4.83600        5.37600        0.43200
H          4.62300        6.85700        2.39300
H          2.84600        6.45700        4.07700
H          1.28200        4.54700        3.78800
H          1.48000        3.05500        1.82600
H          5.14700       -2.80300        0.56600
H          7.16100       -0.54700        0.03200
H          6.25300       -1.41600       -1.22400
H          7.44000       -2.25500       -0.19800
H          6.72300       -1.15500        2.26300
