29
5725-91-7.pdb
C          0.86200       -0.70300        0.21100
C          2.36800       -0.86000        0.31500
O          2.92700       -0.90300       -1.00000
C          4.28600       -1.06600       -1.07200
C          5.14600       -1.15800        0.02500
C          6.52000       -1.32900       -0.16700
C          7.05400       -1.40900       -1.45000
N          8.43900       -1.58300       -1.58400
C          8.89000       -1.65400       -2.79600
C         10.34100       -1.84000       -3.00800
C         10.85800       -1.92100       -4.23600
C         10.00400       -1.82600       -5.43300
O         10.48400       -1.89900       -6.55600
C          8.55700       -1.64100       -5.23000
C          8.02400       -1.55900       -4.00700
O          6.65500       -1.38400       -3.84500
C          6.19000       -1.31300       -2.54900
C          4.81500       -1.14100       -2.36500
H          0.41300       -0.66100        1.20800
H          0.42300       -1.54100       -0.33900
H          0.60500        0.21200       -0.33100
H          2.58700       -1.79300        0.84900
H          2.77300       -0.00500        0.86900
H          4.78700       -1.10300        1.04600
H          7.18100       -1.40100        0.69200
H         10.95900       -1.90900       -2.12000
H         11.92000       -2.05800       -4.40500
H          7.95100       -1.57500       -6.12500
H          4.15600       -1.06800       -3.22600
