32
57260-71-6.pdb
C          3.36700        1.30100        0.71600
C          2.71500        0.12400       -0.02300
C          2.93000       -1.21400        0.69800
C          1.19700        0.38800       -0.07700
O          3.16900        0.05000       -1.40800
C          4.48300       -0.18000       -1.65300
O          5.33800       -0.35300       -0.79500
N          4.79800       -0.23700       -2.99900
C          3.83400       -0.09700       -4.09300
C          3.92900       -1.29100       -5.06100
N          5.36500       -1.52500       -5.47700
C          6.30000       -1.69300       -4.30200
C          6.19000       -0.47300       -3.38300
H          2.98800        1.38800        1.74000
H          3.16600        2.24200        0.19200
H          4.45500        1.20800        0.77800
H          2.51500       -1.19600        1.71200
H          3.98900       -1.47700        0.78800
H          2.45600       -2.03200        0.14300
H          0.77200        0.46200        0.93300
H          0.67500       -0.41300       -0.61000
H          0.97800        1.31800       -0.60900
H          4.08300        0.83000       -4.62200
H          2.81000       -0.00300       -3.72200
H          3.36000       -1.11500       -5.97800
H          3.59000       -2.21800       -4.58900
H          5.68900       -0.73900       -6.05700
H          5.41700       -2.36300       -6.07100
H          7.30900       -1.80500       -4.70800
H          6.00200       -2.61500       -3.79300
H          6.54100        0.42800       -3.90000
H          6.83300       -0.62100       -2.51100
