31
57294-38-9.pdb
C          3.09200        1.43100        0.63100
C          2.64700        0.06100        0.09900
C          3.05700       -1.08400        1.03700
C          1.11000        0.07400        0.01000
O          3.14500       -0.15800       -1.25100
C          4.48400       -0.21900       -1.43800
O          5.34100       -0.14500       -0.56900
N          4.79100       -0.37000       -2.76300
C          6.16700       -0.39000       -3.20600
C          6.77300       -1.79200       -3.14300
C          8.25300       -1.75500       -3.51200
C          8.87600       -3.12500       -3.58600
O          8.91200       -3.77700       -2.40400
O          9.34800       -3.59800       -4.60900
H          2.67100        1.63000        1.62200
H          2.77300        2.23000       -0.04900
H          4.17900        1.51300        0.71400
H          2.63000       -0.95300        2.03600
H          4.14100       -1.15800        1.15900
H          2.72500       -2.04800        0.63700
H          0.65600        0.24000        0.99400
H          0.72600       -0.87100       -0.38900
H          0.75900        0.86500       -0.66300
H          4.02200       -0.43100       -3.41500
H          6.74900        0.29000       -2.57100
H          6.19600        0.00400       -4.22600
H          6.22900       -2.46200       -3.82000
H          6.64700       -2.21100       -2.13600
H          8.82900       -1.14800       -2.80500
H          8.37100       -1.29000       -4.49900
H          8.53900       -3.27700       -1.65300
