24
5736-85-6.pdb
C          1.01600       -0.02500       -0.04000
C          2.52600        0.02900        0.09700
C          3.07000       -1.13900        0.91600
O          4.48600       -0.98000        1.00400
C          5.17200       -1.94000        1.69300
C          4.77500       -3.26900        1.84600
C          5.59700       -4.17100        2.53200
C          6.81300       -3.74000        3.06700
C          7.69100       -4.68900        3.78200
O          7.39300       -5.86900        3.92800
C          7.21600       -2.41200        2.91800
C          6.39600       -1.52000        2.22400
H          0.66100        0.80700       -0.65700
H          0.53100        0.04800        0.93900
H          0.69700       -0.95800       -0.51400
H          2.82700        0.97800        0.55800
H          2.98800        0.01900       -0.89800
H          2.80800       -2.07300        0.40800
H          2.63600       -1.12800        1.92300
H          3.85200       -3.64500        1.42000
H          5.29000       -5.21000        2.63600
H          8.63600       -4.28400        4.17800
H          8.16000       -2.06000        3.32600
H          6.70800       -0.48600        2.09700
