21
574-17-4.pdb
C          1.39200        0.54600        0.67300
C          2.54200       -0.06300       -0.08800
O          2.78300       -1.26600        0.04800
N          3.28200        0.80000       -0.89200
C          3.01500        2.15500       -1.13100
O          2.08300        2.85200       -0.78700
C          4.17500        2.66400       -2.00400
O          4.35100        3.79600       -2.39000
C          5.02600        1.51200       -2.25300
C          6.19300        1.44100       -2.99000
C          6.82200        0.20000       -3.06200
C          6.27400       -0.91400       -2.40600
C          5.09200       -0.80700       -1.66000
C          4.46400        0.42600       -1.58500
H          0.92100       -0.22300        1.29300
H          0.63700        0.93000       -0.01800
H          1.75600        1.33600        1.33700
H          6.60100        2.31600       -3.48700
H          7.74400        0.09200       -3.63100
H          6.77800       -1.87800       -2.47300
H          4.70200       -1.69100       -1.16500
