22
57409-51-5.pdb
C          1.23800        0.00300        0.04500
O          2.66700        0.00900        0.03100
C          3.19700        0.67500       -1.03200
O          2.57700        1.24200       -1.91700
C          4.68600        0.59200       -0.92800
O          5.25100       -0.06200        0.15200
C          5.40300        1.17600       -1.89900
C          6.89200        1.14100       -1.99100
O          7.53400        0.26500       -1.41600
C          7.50500        2.14800       -2.85400
S          9.00300        1.79700       -3.61400
C          9.03300        3.30600       -4.41500
C          7.94500        4.08300       -4.09000
C          7.06300        3.41700       -3.18900
H          0.91000       -0.53200        0.94000
H          0.85000       -0.52200       -0.83400
H          0.84900        1.02500        0.09000
H          4.50800       -0.42800        0.67100
H          4.90000        1.69400       -2.71000
H          9.85300        3.55300       -5.07600
H          7.79000        5.08200       -4.48000
H          6.15400        3.86300       -2.80300
