24
575-41-7.pdb
C          0.98300       -0.06500        0.06600
C          2.48200       -0.11600        0.07400
C          3.15900       -1.33700        0.05700
C          4.56300       -1.38900        0.00400
C          5.23200       -2.73800       -0.00600
C          5.31300       -0.18300       -0.05100
C          6.72100       -0.14900       -0.16700
C          7.42100        1.05600       -0.25300
C          6.73300        2.26000       -0.19100
C          5.34500        2.25900       -0.05600
C          4.62500        1.05300       -0.00400
C          3.22200        1.07000        0.07000
H          0.54600       -1.06900        0.05000
H          0.63300        0.46300       -0.82700
H          0.61300        0.45100        0.95900
H          2.58800       -2.26400        0.07200
H          4.49900       -3.55200        0.02000
H          5.87500       -2.84800        0.87300
H          5.82600       -2.86400       -0.91600
H          7.29400       -1.07200       -0.21400
H          8.50000        1.04900       -0.37200
H          7.27300        3.20100       -0.25700
H          4.82500        3.21300       -0.00700
H          2.69500        2.02200        0.09800
