20
575-38-2.pdb
O          0.93300        0.10000        0.24600
C          2.29400        0.03400        0.17500
C          2.95500       -1.18500        0.12200
C          4.34800       -1.20400        0.03200
C          5.08700       -0.00900       -0.00700
C          6.48700       -0.02700       -0.11800
C          7.21800        1.16100       -0.16300
C          6.56200        2.38600       -0.08400
C          5.17200        2.41800        0.03300
O          4.53100        3.62700        0.12300
C          4.40900        1.23300        0.06200
C          3.00300        1.23000        0.15400
H          0.57600       -0.80000        0.18000
H          2.41100       -2.12300        0.14800
H          4.85800       -2.16500       -0.01000
H          7.02100       -0.97300       -0.17700
H          8.30000        1.12800       -0.26000
H          7.14400        3.30200       -0.12100
H          5.19700        4.32900        0.19300
H          2.45800        2.17100        0.20300
