18
5751-80-4.pdb
C          2.12300       -0.25600       -2.17100
C          2.39200        0.04300       -0.70600
O          3.01200        1.33000       -0.62900
C          4.36900        1.32600       -0.79200
O          5.07700        0.33300       -0.68800
C          4.88800        2.62400       -1.20800
C          4.12100        3.76300       -1.38600
S          5.02600        5.08700       -1.98300
C          6.46500        4.16600       -2.00200
C          6.25800        2.88100       -1.55400
H          1.60700       -1.21100       -2.29400
H          3.05800       -0.28400       -2.74100
H          1.51300        0.53900       -2.61400
H          2.99900       -0.74000       -0.23900
H          1.44800        0.09800       -0.15500
H          3.05900        3.88000       -1.21700
H          7.39100        4.60600       -2.34600
H          7.04400        2.13500       -1.49900
