25
57568-60-2.pdb
O          0.96500        0.19500        0.19600
C          2.17500        0.06900        0.03100
C          3.01100        0.99800       -0.78800
C          2.35200        1.86500       -1.58100
C          2.98200        2.73000       -2.51800
O          4.18600        2.46500       -3.13000
C          4.44900        3.45200       -4.01700
C          3.44300        4.38300       -4.00700
C          2.50600        3.92600       -3.04900
C          4.46900        0.86600       -0.66000
C          5.17200        1.68600        0.23300
C          6.53600        1.48000        0.44700
C          7.20100        0.45600       -0.22500
C          6.51000       -0.34900       -1.13100
C          5.14900       -0.14000       -1.35500
H          2.72700       -0.77400        0.47700
H          1.26500        1.90100       -1.55000
H          5.37100        3.34500       -4.57200
H          3.38700        5.27100       -4.61800
H          1.57600        4.40600       -2.77600
H          4.66100        2.47700        0.77700
H          7.07700        2.11200        1.14600
H          8.25900        0.28500       -0.04400
H          7.03000       -1.14400       -1.65900
H          4.62200       -0.76800       -2.07000
