17
57597-62-3.pdb
C          1.16900       -0.27100        0.00700
O          2.55800       -0.00600        0.02600
C          2.92300        1.37300        0.01700
C          2.41700        2.11600        1.26800
C          2.83000        3.57800        1.21700
N          3.17300        4.79100        1.17500
O          4.35400        1.44700        0.01700
C          4.93900        0.86400       -1.14400
H          1.02700       -1.27800       -0.40900
H          0.60600        0.44200       -0.60700
H          0.79300       -0.28700        1.02800
H          2.54200        1.85200       -0.89200
H          2.83700        1.66100        2.17300
H          1.32700        2.05700        1.34800
H          6.02800        0.86400       -1.01500
H          4.69700        1.44800       -2.03500
H          4.62300       -0.17100       -1.27800
