40
5768-10-5.pdb
O          1.01200        0.01800        0.17000
C          2.43800       -0.01400        0.09700
C          2.92300        1.03200       -0.91600
C          2.55800        0.66200       -2.35700
C          3.02300       -0.74600       -2.72000
C          2.52300       -1.79000       -1.72600
C          2.90100       -1.42600       -0.29000
C          2.93900        0.32500        1.49200
C          3.36900        0.61600        2.68800
C          3.87000        0.95600        4.08200
C          4.30000        1.24700        5.27800
C          4.80100        1.58600        6.67300
O          3.76600        1.33900        7.61400
C          5.20800        3.06700        6.72300
C          6.40900        3.37600        5.82500
C          7.59300        2.45700        6.11800
C          7.20900        0.98000        6.10000
C          6.00600        0.69600        7.00500
H          0.65000       -0.18600       -0.70500
H          4.01300        1.14500       -0.84600
H          2.48400        2.01200       -0.68900
H          3.01100        1.38500       -3.04400
H          1.47300        0.73700       -2.49800
H          4.11900       -0.76900       -2.74800
H          2.67300       -1.00000       -3.72700
H          2.94600       -2.76900       -1.97800
H          1.43500       -1.89100       -1.81200
H          3.99100       -1.50500       -0.18000
H          2.45800       -2.17000        0.38600
H          2.97900        1.81900        7.30200
H          5.44800        3.34200        7.75900
H          4.36200        3.70700        6.43800
H          6.71200        4.42000        5.96400
H          6.12200        3.27600        4.77100
H          8.00500        2.70700        7.10200
H          8.38700        2.63800        5.38300
H          8.06400        0.37300        6.42100
H          6.98500        0.67500        5.07200
H          6.29600        0.84800        8.05300
H          5.73100       -0.36500        6.92800
