25
57696-89-6.pdb
C          1.04500       -0.05200        0.33100
C          2.52500       -0.03400       -0.03600
C          2.91000        0.99100       -1.11100
C          2.58400        0.61900       -2.57900
C          1.07600        0.70600       -2.87500
C          3.29100        1.63700       -3.50000
C          3.11500       -0.78700       -2.90400
C          2.70500       -1.80900       -1.87800
O          2.22900       -2.90100       -2.15100
C          2.96700       -1.42100       -0.43400
O          3.47500       -2.22100        0.34100
H          0.64600        0.96200        0.43400
H          0.90500       -0.56400        1.28900
H          0.43700       -0.59800       -0.39300
H          3.08300        0.23600        0.87100
H          4.00000        1.12900       -1.03800
H          2.47400        1.96700       -0.86300
H          0.65000        1.64000       -2.49200
H          0.51600       -0.12700       -2.44500
H          0.88600        0.67800       -3.95500
H          2.94300        2.65700       -3.30200
H          3.09800        1.41600       -4.55700
H          4.37700        1.62000       -3.35500
H          4.21200       -0.79500       -2.94000
H          2.75700       -1.11700       -3.88800
