20
577-56-0.pdb
C          1.11300       -0.34600       -0.42800
C          2.58200       -0.12300       -0.18100
O          3.20900        0.77800       -0.73400
C          3.33000       -1.11900        0.62700
C          3.02900       -2.48000        0.46800
C          3.83700       -3.45200        1.06100
C          4.94700       -3.07600        1.81200
C          5.22900       -1.72400        2.01300
C          4.41600       -0.73900        1.42900
C          4.61000        0.67500        1.82900
O          5.90500        1.05600        1.86600
O          3.68800        1.37700        2.20300
H          0.64900        0.59700       -0.73200
H          0.61400       -0.68900        0.48300
H          0.97800       -1.07700       -1.23000
H          2.18500       -2.80600       -0.13600
H          3.59800       -4.50600        0.93400
H          5.58000       -3.83800        2.26100
H          6.06200       -1.45300        2.65800
H          6.52500        0.44800        1.42500
