19
577-59-3.pdb
C          1.11600       -0.38200        0.22700
C          2.58200       -0.11900        0.00500
O          3.18500       -0.60400       -0.94800
C          3.33300        0.68600        1.00500
C          2.93600        0.68400        2.35100
C          3.70900        1.33600        3.32000
C          4.88800        1.99200        2.96300
C          5.28600        2.02400        1.62800
C          4.50000        1.37900        0.66300
N          4.88100        1.55800       -0.72500
O          4.10500        2.21800       -1.43100
O          6.00100        1.14800       -1.05900
H          0.69300       -0.83300       -0.67600
H          0.58500        0.55400        0.41800
H          0.97800       -1.08300        1.05400
H          2.04400        0.15800        2.67900
H          3.39700        1.31900        4.36200
H          5.49100        2.48300        3.72400
H          6.19300        2.55600        1.34500
