24
578-95-0.pdb
O         -0.00200        2.48400       -0.05500
C          0.00000        1.25600       -0.03400
C         -1.27500        0.49800       -0.01600
C         -2.49500        1.17900        0.06200
C         -3.68500        0.45400        0.10700
C         -3.65300       -0.94100        0.06700
C         -2.43200       -1.61700       -0.01700
C         -1.23000       -0.90400       -0.06800
N          0.00400       -1.57300       -0.06000
C          1.23600       -0.90100       -0.06300
C          2.43800       -1.61200       -0.00200
C          3.65700       -0.93100        0.07900
C          3.68700        0.46300        0.10400
C          2.49500        1.18500        0.05300
C          1.27700        0.50200       -0.01700
H         -2.51500        2.26500        0.10300
H         -4.63500        0.97700        0.18300
H         -4.58200       -1.50300        0.11300
H         -2.43000       -2.70400       -0.02800
H          0.00500       -2.55500       -0.30100
H          2.43800       -2.69800       -0.00200
H          4.58800       -1.49200        0.13300
H          4.63500        0.98900        0.17500
H          2.51300        2.27200        0.08400
