22
5785-06-8.pdb
C          1.17900       -0.43000        0.24500
O          2.42900        0.07500       -0.20700
C          3.05900        0.98400        0.59700
C          2.55700        1.51400        1.78700
C          3.31100        2.43600        2.51900
C          4.57500        2.82500        2.07400
C          5.09100        2.28400        0.89000
C          4.31800        1.38500        0.14600
C          6.44900        2.62300        0.38700
O          6.70800        2.57200       -0.81200
N          7.40000        2.93800        1.35100
N          8.72800        3.19500        0.94900
H          0.85500       -1.19900       -0.46300
H          0.42000        0.35900        0.25400
H          1.27100       -0.90300        1.22800
H          1.58100        1.23400        2.17000
H          2.90700        2.85400        3.43900
H          5.12800        3.56400        2.64700
H          4.70700        0.97700       -0.78600
H          7.19200        2.88500        2.34400
H          8.69700        3.36100       -0.06800
H          9.25600        2.32100        1.03000
