27
579-18-0.pdb
O          3.10900        0.65000        0.89100
C          2.36900       -0.07000        0.02300
O          1.17000        0.08900       -0.12600
C          3.15000       -1.04700       -0.77500
C          2.71700       -1.34500       -2.07300
C          3.43100       -2.24900       -2.86100
C          4.58100       -2.85900       -2.35700
C          4.99500       -2.59300       -1.04600
C          4.27600       -1.68900       -0.25400
C          6.22800       -3.17900       -0.46600
O          6.87500       -2.49500        0.32500
C          6.69900       -4.54400       -0.80700
C          5.81100       -5.57500       -1.13800
C          6.30200       -6.84700       -1.43900
C          7.67300       -7.09800       -1.39000
C          8.55800       -6.08000       -1.03500
C          8.07200       -4.80700       -0.74100
H          4.07600        0.55300        0.80900
H          1.82500       -0.86600       -2.47500
H          3.09600       -2.46800       -3.87300
H          5.14500       -3.52900       -3.00100
H          4.59900       -1.51400        0.77100
H          4.73600       -5.41500       -1.14900
H          5.61400       -7.64700       -1.70100
H          8.05200       -8.09200       -1.61500
H          9.62500       -6.28000       -0.98200
H          8.76800       -4.01900       -0.45600
