21
579-74-8.pdb
C          1.07000       -0.17900        0.04200
O          2.46200        0.02300       -0.18300
C          3.11100        0.85200        0.69400
C          2.71900        1.01600        2.03000
C          3.48700        1.78300        2.91000
C          4.66300        2.38400        2.47300
C          5.06000        2.23600        1.14600
C          4.28300        1.48600        0.24700
C          4.76700        1.42400       -1.16100
C          3.77800        1.36500       -2.29700
O          5.97700        1.47700       -1.38300
H          0.68000       -0.75100       -0.80500
H          0.53600        0.77700        0.07500
H          0.88700       -0.76700        0.94600
H          1.83400        0.52900        2.42700
H          3.17700        1.89200        3.94700
H          5.27400        2.96100        3.16300
H          5.98200        2.70700        0.80900
H          2.76600        1.62900       -1.98700
H          3.78700        0.36200       -2.73200
H          4.07400        2.09600       -3.05700
