26
579-66-8.pdb
C          3.68400        0.43100        0.86600
C          2.54900        0.19500       -0.11700
C          2.95300       -0.66800       -1.28900
C          3.47900       -0.01100       -2.41900
C          3.82600       -0.72500       -3.56000
C          3.63200       -2.09900       -3.59900
C          3.09600       -2.79200       -2.49300
C          2.82400       -4.27100       -2.66900
C          4.00200       -5.18500       -2.37000
C          2.77200       -2.07400       -1.31800
N          2.47900       -2.76600       -0.12700
H          3.34900        1.08400        1.68200
H          4.53800        0.91200        0.37800
H          4.03100       -0.50800        1.30600
H          2.19300        1.16600       -0.48700
H          1.68400       -0.23000        0.40200
H          3.61700        1.06600       -2.41000
H          4.23300       -0.20700       -4.42400
H          3.88900       -2.64200       -4.50600
H          2.50500       -4.44400       -3.70500
H          1.96000       -4.57500       -2.06800
H          4.86100       -4.95500       -3.01100
H          3.71900       -6.22700       -2.55300
H          4.32200       -5.10200       -1.32500
H          1.98400       -3.64000       -0.25600
H          2.08500       -2.20900        0.62100
