20
5794-13-8.pdb
O         -0.42000        0.74700       -0.72200
N          1.59400       -0.48700        0.65600
C          3.00300       -0.04400        0.39000
C          3.10300        0.70100       -0.93600
C          4.49300        0.92000       -1.50800
N          5.57800        0.73400       -0.71400
O          4.65100        1.27400       -2.67500
C          3.41700        0.86800        1.56600
O          2.46500        0.91700        2.52500
O          4.48500        1.45600        1.64500
H         -0.46500        0.86200       -1.68600
H         -1.25600        0.29400       -0.51400
H          1.39100       -1.26400        0.02000
H          0.94900        0.24300        0.28600
H          3.64000       -0.93400        0.42000
H          2.61500        1.68100       -0.87600
H          2.57600        0.11500       -1.70100
H          5.52000        0.96200        0.27900
H          6.45400        1.01900       -1.13800
H          1.73700        0.32400        2.20800
