21
58-27-5.pdb
C         -3.51800        0.30600        0.00600
C         -2.06700       -0.06500        0.01400
C         -1.64100       -1.33300        0.04300
C         -0.21200       -1.69300        0.02500
O          0.12900       -2.86800        0.02400
C          0.77300       -0.59700        0.00400
C          2.14100       -0.89700        0.00500
C          3.08100        0.13500        0.01000
C          2.65800        1.46400        0.00800
C          1.29400        1.76300       -0.00400
C          0.34700        0.72900       -0.00600
C         -1.09300        1.05800       -0.01700
O         -1.47000        2.22500       -0.04900
H         -4.16400       -0.57800        0.02300
H         -3.76200        0.87500       -0.89800
H         -3.76600        0.91600        0.88100
H         -2.32900       -2.17200        0.07300
H          2.47800       -1.93200        0.00600
H          4.14400       -0.09800        0.01700
H          3.39000        2.26900        0.01600
H          0.97200        2.80400       -0.00800
