39
58-60-6.pdb
C          1.46300        1.03100       -0.45000
N          2.60900        0.23700       -0.04800
C          2.70100       -0.23500        1.32200
C          3.28800       -0.44800       -1.05600
N          2.93100       -0.22100       -2.35700
C          3.56300       -0.87600       -3.35200
N          4.55400       -1.78000       -3.26400
C          4.90600       -1.96500       -1.98000
N          5.86200       -2.83300       -1.50500
C          5.87700       -2.70400       -0.13900
N          4.98000       -1.84400        0.28800
C          4.35200       -1.37200       -0.85300
C          6.66200       -3.77800       -2.24700
O          7.50800       -3.10100       -3.20600
C          7.60400       -3.95800       -4.37400
C          9.05100       -4.00000       -4.87100
O          9.92700       -4.47100       -3.84000
C          6.98100       -5.32900       -4.00500
N          7.89500       -6.32600       -3.41800
C          5.92400       -4.90000       -2.98600
O          4.75000       -4.52400       -3.70900
H          0.93300        1.44100        0.41700
H          0.73700        0.44500       -1.02600
H          1.78900        1.88700       -1.05200
H          2.05800        0.35500        1.98600
H          3.71900       -0.12000        1.70800
H          2.38800       -1.28100        1.41400
H          3.21100       -0.64500       -4.35600
H          6.55100       -3.26500        0.49300
H          7.36400       -4.22500       -1.52700
H          6.99000       -3.48800       -5.15300
H          9.39600       -2.99700       -5.14600
H          9.15300       -4.65500       -5.73900
H          9.85400       -3.82300       -3.11400
H          6.52700       -5.77700       -4.89600
H          8.60600       -5.85400       -2.85100
H          8.46800       -6.71700       -4.17400
H          5.62900       -5.70100       -2.30000
H          4.72700       -3.55200       -3.81800
