32
58-61-7.pdb
N          1.13600        0.04900        0.18600
C          2.51000       -0.02200        0.34900
N          3.18800        1.11700        0.62000
C          4.53300        1.05500        0.71800
N          5.34000       -0.02000        0.57500
C          4.61200       -1.13000        0.34800
N          5.06800       -2.39600        0.10400
C          3.97000       -3.20300       -0.05800
N          2.84400       -2.52400        0.00600
C          3.23500       -1.22000        0.23600
C          6.43500       -2.82700       -0.06300
O          7.20400       -2.56100        1.13000
C          8.55100       -2.23000        0.69700
C          9.55900       -2.98400        1.56000
O          9.32800       -4.39200        1.45800
C          8.62500       -2.55200       -0.81000
O          8.86900       -3.92900       -1.11400
C          7.20900       -2.22800       -1.25300
O          7.10600       -0.81400       -1.43700
H          0.72900        0.87100        0.61000
H          0.66000       -0.84000        0.29800
H          5.03100        1.99800        0.93000
H          4.04500       -4.26800       -0.23900
H          6.41500       -3.92200       -0.15900
H          8.67200       -1.15100        0.85400
H          9.46600       -2.70900        2.61600
H         10.58200       -2.78300        1.23000
H          8.52200       -4.56600        1.98400
H          9.39000       -1.94500       -1.30400
H          9.20300       -4.37900       -0.30700
H          6.92200       -2.71400       -2.19100
H          6.69800       -0.40800       -0.64400
