20
58-86-6.pdb
O          0.90800       -0.06100        0.10100
C          2.34500       -0.03900        0.08900
C          2.86100        0.96400       -0.94700
O          2.52100        0.59200       -2.28300
C          2.94800       -0.71300       -2.65600
O          4.36600       -0.75000       -2.82500
C          2.44700       -1.81100       -1.69400
O          2.96400       -3.09600       -2.05700
C          2.83500       -1.45200       -0.25000
O          2.27700       -2.38400        0.68300
H          0.59800        0.85200        0.23600
H          2.66500        0.24200        1.09700
H          3.94700        1.08400       -0.87200
H          2.40700        1.94500       -0.77200
H          2.53600       -0.91400       -3.65000
H          4.78900       -0.72100       -1.95600
H          1.35500       -1.88300       -1.76000
H          3.91000       -2.98700       -2.26300
H          3.92200       -1.51700       -0.12900
H          1.30800       -2.26800        0.62400
