18
580-16-5.pdb
O          0.99800        0.04300        0.17700
C          2.35900        0.08900        0.12100
C          3.04200        1.29400        0.06800
C          4.44000        1.28300       -0.00600
C          5.16300        0.09800       -0.03900
N          6.50400        0.14200       -0.13400
C          7.17400       -1.02900       -0.18100
C          6.56800       -2.27000       -0.12900
C          5.18300       -2.31400       -0.02000
C          4.45100       -1.12100        0.02200
C          3.04800       -1.11700        0.11000
H          0.65200        0.94700        0.09600
H          2.52000        2.24500        0.08200
H          4.98100        2.22500       -0.04900
H          8.25300       -0.93800       -0.26700
H          7.15600       -3.17900       -0.17400
H          4.68000       -3.27600        0.02100
H          2.49100       -2.04900        0.15800
