23
580-51-8.pdb
O          2.28700       -0.03500        0.03200
C          0.92300       -0.05900        0.00400
C          0.22000       -1.25400       -0.03200
C         -1.17100       -1.21900       -0.06400
C         -1.84500        0.00900       -0.06200
C         -1.14900        1.23300       -0.01000
C          0.25500        1.16500        0.02100
C         -1.85700        2.53800        0.03600
C         -3.09700        2.68100        0.68500
C         -3.74200        3.92000        0.77000
C         -3.15600        5.05200        0.21300
C         -1.93600        4.94000       -0.44400
C         -1.30200        3.69700       -0.54000
H          2.61300       -0.95100        0.01300
H          0.73100       -2.21100       -0.03200
H         -1.73800       -2.14600       -0.08900
H         -2.93200       -0.00600       -0.10600
H          0.85500        2.07000        0.07700
H         -3.57400        1.82700        1.16000
H         -4.69700        4.00000        1.28400
H         -3.64700        6.01800        0.29400
H         -1.47100        5.82000       -0.88200
H         -0.35600        3.64900       -1.07600
