19
580-15-4.pdb
N          0.91100       -0.03400       -0.03600
C          2.30300       -0.04200        0.10200
C          3.02300        1.14800        0.03100
C          4.42300        1.13500        0.00200
C          5.13900       -0.05200       -0.01300
N          6.48200       -0.01600       -0.08200
C          7.14500       -1.19400       -0.13900
C          6.52600       -2.42800       -0.11300
C          5.14000       -2.46100       -0.02700
C          4.41500       -1.26100        0.01700
C          3.00800       -1.24600        0.06300
H          0.46600        0.82300        0.27700
H          0.45000       -0.86400        0.32100
H          2.50600        2.10300       -0.01100
H          4.96600        2.07600       -0.03800
H          8.22500       -1.10900       -0.21500
H          7.10700       -3.34100       -0.16400
H          4.62800       -3.41900       -0.00500
H          2.46100       -2.18500        0.05000
