27
58052-80-5.pdb
C          0.87700       -0.03200        0.09900
C          2.38800       -0.00400       -0.03900
N          2.97000       -1.20600        0.55800
C          4.43000       -1.25900        0.62500
C          5.04900       -1.48900       -0.74800
N          4.91100       -0.01800        1.23400
C          4.40100        1.22800        0.66200
C          4.86900        2.41100        1.48900
N          2.94100        1.16100        0.65200
H          0.45900       -0.91200       -0.40300
H          0.43000        0.85500       -0.36200
H          0.56200       -0.06200        1.14700
H          2.67900        0.04500       -1.09500
H          2.65700       -2.01800       -0.01100
H          2.54000       -1.43800        1.47100
H          4.69800       -2.07900        1.29900
H          4.81300       -0.69600       -1.46400
H          4.69500       -2.43300       -1.17600
H          6.14000       -1.54800       -0.67300
H          5.94700       -0.00500        1.13400
H          4.82100       -0.04300        2.26500
H          4.75500        1.31600       -0.37000
H          4.50800        2.35700        2.52200
H          4.51200        3.35200        1.05600
H          5.96400        2.45500        1.51800
H          2.60500        2.00100        0.13700
H          2.52000        1.31700        1.58300
