24
581-40-8.pdb
C          0.98300       -0.02000        0.08500
C          2.48500       -0.08700        0.04900
C          3.22600        1.10800        0.03500
C          4.62800        1.10200       -0.03900
C          5.36700        2.29700       -0.07500
C          6.75800        2.27300       -0.17200
C          7.43000        1.05500       -0.22800
C          6.71100       -0.13900       -0.18100
C          5.30900       -0.13200       -0.08900
C          4.56900       -1.32400       -0.05600
C          3.16500       -1.31800        0.00900
C          2.42200       -2.62500        0.01400
H          0.62600        1.01400        0.12000
H          0.59800       -0.53100        0.97300
H          0.56300       -0.48300       -0.81400
H          2.70000        2.06000        0.07100
H          4.85800        3.25700       -0.03400
H          7.31600        3.20500       -0.20900
H          8.51400        1.03400       -0.30900
H          7.25300       -1.08200       -0.22600
H          5.09500       -2.27800       -0.09100
H          3.10800       -3.47900        0.02100
H          1.79800       -2.70900       -0.88200
H          1.79300       -2.70500        0.90600
