24
581-96-4.pdb
O          3.20800       -1.11000       -2.60700
C          2.41800       -1.21900       -1.51900
O          1.21400       -1.41800       -1.63000
C          3.08500       -1.07800       -0.16700
C          4.58200       -0.86900       -0.16400
C          5.45300       -1.96300       -0.14200
C          6.83600       -1.76600       -0.15300
C          7.37900       -0.47200       -0.18000
C          8.76800       -0.25500       -0.17300
C          9.28700        1.04100       -0.18500
C          8.42900        2.13500       -0.20900
C          7.04700        1.93600       -0.22500
C          6.50700        0.64000       -0.20900
C          5.11800        0.42700       -0.21200
H          4.15300       -0.95100       -2.42000
H          2.85500       -1.98200        0.41000
H          2.60800       -0.23600        0.35000
H          5.06500       -2.98000       -0.10700
H          7.49200       -2.63500       -0.12700
H          9.45700       -1.09600       -0.15000
H         10.36400        1.19500       -0.17100
H          8.83100        3.14400       -0.21200
H          6.39300        2.80500       -0.24000
H          4.44700        1.28600       -0.23900
