27
58175-57-8.pdb
C          0.93400       -0.00500        0.06400
C          2.45400        0.09400        0.06000
C          3.07200       -0.99500        0.93900
C          4.61800       -0.98700        0.97700
C          5.19500        0.34700        1.49200
O          4.81100        0.61200        2.83400
C          5.15200       -2.15600        1.84300
C          4.75600       -3.54100        1.31900
C          5.28400       -4.65800        2.20200
H          0.50100        0.77600       -0.56800
H          0.53800        0.11900        1.07700
H          0.60000       -0.97600       -0.31700
H          2.73400        1.08900        0.41600
H          2.82100       -0.00800       -0.96900
H          2.72300       -1.95400        0.54400
H          2.67200       -0.91900        1.95700
H          4.98500       -1.12600       -0.04800
H          4.88900        1.19200        0.86800
H          6.28900        0.32000        1.46600
H          3.84000        0.61200        2.87700
H          4.79400       -2.04500        2.87500
H          6.24700       -2.09600        1.88300
H          5.13400       -3.67200        0.29900
H          3.66900       -3.64700        1.28300
H          6.37900       -4.63500        2.25500
H          4.98200       -5.62900        1.80200
H          4.89500       -4.57100        3.22100
