19
5818-06-4.pdb
N          1.18200       -2.03600        1.89300
N          2.58500       -1.98300        1.76400
C          3.16700       -0.98600        0.98700
O          2.54100       -0.15600        0.33500
C          4.65800       -0.98500        0.98300
C          5.34300        0.22900        0.88700
C          6.74600        0.24000        0.87900
C          7.45600       -0.96000        0.95000
C          6.76000       -2.16300        1.02500
O          7.40800       -3.36100        1.07900
C          5.37100       -2.18700        1.03900
H          0.88500       -3.01200        1.85400
H          0.78800       -1.59500        1.05300
H          3.15500       -2.48100        2.44700
H          4.79700        1.16700        0.82500
H          7.27900        1.18500        0.81200
H          8.54100       -0.93700        0.93700
H          8.36500       -3.20200        1.02200
H          4.86300       -3.14700        1.06200
