22
58196-33-1.pdb
O          1.01900        0.00900       -0.12800
C          2.38300       -0.04500       -0.11500
C          3.05700       -1.26100       -0.08000
C          4.45100       -1.26500       -0.05800
C          5.16500       -0.05800       -0.07400
C          6.67200       -0.08100       -0.04900
C          7.25700        1.24500       -0.53000
C          6.59100        2.39800        0.20400
N          5.15200        2.38200        0.01900
C          4.47900        1.17000       -0.09700
C          3.08100        1.15900       -0.12000
H          0.67500       -0.89700       -0.08000
H          2.52000       -2.20300       -0.06100
H          4.98200       -2.21400       -0.02600
H          7.04600       -0.88500       -0.69200
H          7.00300       -0.28700        0.97600
H          7.09700        1.35200       -1.61000
H          8.33900        1.26000       -0.35800
H          6.99200        3.35200       -0.15600
H          6.81100        2.34200        1.27700
H          4.71500        3.19000       -0.40800
H          2.52600        2.09200       -0.11700
