21
582-60-5.pdb
C          2.89100       -1.44900       -0.03100
C          1.58400       -0.69900       -0.00700
C          0.38300       -1.43700       -0.00100
C         -0.81300       -0.71700        0.00500
N         -2.12800       -1.10600        0.01400
C         -2.90100        0.02200        0.01000
N         -2.17000        1.11100        0.00400
C         -0.86800        0.67000        0.00300
C          0.32800        1.40000        0.00200
C          1.56000        0.71400        0.00200
C          2.83400        1.51600        0.02000
H          2.73400       -2.53300       -0.02200
H          3.49300       -1.19600        0.84800
H          3.44900       -1.20500       -0.94000
H          0.38500       -2.52200       -0.00300
H         -2.46600       -2.05600        0.02200
H         -3.98200       -0.01600        0.01300
H          0.28200        2.48400        0.00300
H          2.63300        2.59200        0.01900
H          3.43800        1.29200       -0.86500
H          3.41000        1.29000        0.92300
