20
582-17-2.pdb
O          3.58400        1.12100        0.00000
C          2.42500        0.40100       -0.00200
C          2.43800       -0.98800       -0.00100
C          1.22800       -1.68400        0.00100
C          0.00200       -0.99800        0.00200
C         -1.22200       -1.68600        0.00900
C         -2.43400       -0.99200        0.01000
C         -2.42300        0.39700       -0.00100
O         -3.58300        1.11400       -0.00100
C         -1.22400        1.10300       -0.01000
C          0.00100        0.41800       -0.00500
C          1.22500        1.10500       -0.00600
H          4.33300        0.50300        0.00500
H          3.37000       -1.54300       -0.00100
H          1.24700       -2.77200        0.00300
H         -1.23900       -2.77400        0.01700
H         -3.36500       -1.54900        0.01800
H         -4.33100        0.49600        0.02800
H         -1.25100        2.19000       -0.02000
H          1.25000        2.19200       -0.00600
