38
582-52-5.pdb
C          0.36300       -3.07700       -0.32600
C          0.04300       -1.86400        0.54800
C          0.34100       -2.17000        2.01200
O          0.84300       -0.76900        0.12700
C          0.00300        0.07800       -0.65300
C         -1.41400       -0.40700       -0.47300
O         -1.34300       -1.54000        0.41600
C         -2.19900       -0.83100       -1.74000
O         -1.96000       -0.03200       -2.93400
C         -3.20600        0.61900       -3.29500
O         -3.06200        1.98500       -3.64900
C         -2.86300        2.63900       -2.39400
C         -1.36400        2.94300       -2.31400
C         -3.64400        3.94300       -2.29700
O         -3.31600        1.76700       -1.32900
C         -3.98600        0.67900       -2.01500
C         -3.70700       -0.70400       -1.46400
O         -4.46500       -1.67100       -2.21100
H          1.42900       -3.33700       -0.27700
H          0.12500       -2.87200       -1.37500
H         -0.22700       -3.94800       -0.02500
H          1.39100       -2.44200        2.15500
H         -0.29400       -2.98100        2.38800
H          0.14600       -1.29100        2.63600
H          0.34600        0.07500       -1.69300
H          0.11400        1.09800       -0.26900
H         -1.96800        0.36400        0.07700
H         -1.93600       -1.86200       -1.99900
H         -3.68700        0.05700       -4.10400
H         -1.08100        3.63200       -3.12300
H         -0.75500        2.04700       -2.47600
H         -1.07900        3.37300       -1.35700
H         -3.47300        4.58300       -3.16800
H         -3.36200        4.49200       -1.38900
H         -4.72000        3.75100       -2.22600
H         -5.04300        0.92300       -2.15300
H         -3.96300       -0.82000       -0.40600
H         -3.86800       -2.19000       -2.77300
