28
583-03-9.pdb
C          0.86500       -0.05200        0.03000
C          2.38300       -0.04100        0.06700
C          2.92700        0.98600        1.06100
C          4.45800        0.95900        1.05200
C          5.09800        1.96600        2.01800
O          4.67200        1.65200        3.34400
C          6.61900        2.01000        1.98300
C          7.39700        1.18500        1.15400
C          8.78800        1.29100        1.12900
C          9.43100        2.22000        1.94200
C          8.68400        3.04000        2.78300
C          7.29000        2.93500        2.80300
H          0.51200       -0.80100       -0.68600
H          0.47400        0.92300       -0.27600
H          0.45100       -0.29900        1.01300
H          2.76400        0.17700       -0.93800
H          2.74200       -1.04200        0.33600
H          2.54900        0.76300        2.06600
H          2.57300        1.98900        0.79300
H          4.80200        1.15900        0.03000
H          4.77800       -0.05700        1.32100
H          4.72500        2.96900        1.77800
H          5.25300        0.94400        3.66800
H          6.93800        0.44700        0.50000
H          9.36800        0.65100        0.47000
H         10.51300        2.30800        1.91500
H          9.18200        3.76500        3.42100
H          6.71900        3.58400        3.46500
