27
5830-30-8.pdb
C          0.88800       -0.03900       -0.03000
C          2.40700       -0.04300       -0.01400
C          2.94400       -0.13000        1.41300
C          4.47000       -0.13300        1.41900
C          5.02700       -0.22100        2.83900
C          6.54900       -0.22100        2.84200
O          7.18200       -0.15700        1.78900
N          7.17900       -0.29700        4.07700
C          6.50300       -0.37700        5.36300
C          8.63300       -0.29700        4.11800
H          0.52000        0.02400       -1.05900
H          0.49600        0.81800        0.52700
H          0.49100       -0.95300        0.42000
H          2.77800        0.86900       -0.49800
H          2.77300       -0.89300       -0.60300
H          2.57100       -1.04300        1.89300
H          2.57300        0.71900        1.99900
H          4.84000        0.77900        0.93400
H          4.83800       -0.97900        0.82600
H          4.67500       -1.14600        3.30900
H          4.67500        0.63800        3.42000
H          5.41700       -0.37300        5.27700
H          6.80700        0.48100        5.97100
H          6.80900       -1.30200        5.86100
H          9.08100       -0.23600        3.12300
H          8.97100       -1.22200        4.59600
H          8.96900        0.56200        4.70600
