14
5834-16-2.pdb
C          2.69200       -0.27600        0.00400
C          1.21200       -0.06300       -0.00000
C          0.58500        1.22700        0.00200
C         -0.78900        1.15000       -0.00300
S         -1.33600       -0.46600       -0.01000
C          0.26300       -1.07500       -0.00700
C          0.46000       -2.51100       -0.01000
O          1.55200       -3.07800       -0.00800
H          3.23000        0.67700        0.00600
H          3.00000       -0.83400       -0.88600
H          2.99500       -0.83500        0.89500
H          1.12100        2.16900        0.00700
H         -1.49800        1.96700       -0.00300
H         -0.45800       -3.12500       -0.01500
