21
5837-78-5.pdb
C          3.29700       -1.11900       -2.29200
C          2.84100       -0.42000       -1.02400
O          3.15400        0.97400       -1.15200
C          4.39200        1.32900       -0.73400
O          5.14500        0.64000       -0.06500
C          4.76400        2.64300       -1.34100
C          3.69800        3.56900       -1.84100
C          6.08700        2.88100       -1.46000
C          6.72300        4.06500       -2.11200
H          3.06500       -2.18600       -2.26400
H          4.37500       -0.99400       -2.43900
H          2.80900       -0.67100       -3.16600
H          3.29700       -0.86600       -0.13300
H          1.75600       -0.50900       -0.91500
H          2.68500        3.23800       -1.59600
H          3.75600        3.66300       -2.93100
H          3.81500        4.56300       -1.39600
H          6.79600        2.14400       -1.08100
H          5.99800        4.78100       -2.50600
H          7.34800        3.72800       -2.94600
H          7.36300        4.58500       -1.39300
