43
5838-34-6.pdb
O          2.65200       -0.19000       -1.19200
C          2.22100        0.12800       -0.08600
C          0.72100        0.11900        0.20200
N          0.31100       -1.22500        0.54200
C         -0.19500       -2.13000       -0.34900
O         -0.43300       -1.99700       -1.53200
C         -0.45300       -3.35400        0.41000
C         -0.94600       -4.57600       -0.00600
C         -1.08500       -5.57300        0.96500
C         -0.74100       -5.32400        2.31000
C         -0.24500       -4.07700        2.70700
C         -0.10700       -3.11200        1.72800
C          0.39700       -1.74000        1.80400
O          0.82600       -1.19500        2.80400
N          2.99700        0.42100        1.02500
C          4.40300        0.56100        1.04200
C          5.18000        0.70100       -0.11200
C          6.57900        0.78300       -0.03700
C          7.22100        0.72200        1.20200
C          6.43700        0.64600        2.36300
C          5.04200        0.57000        2.28300
C          8.70700        0.74600        1.36500
O          9.15100        1.11400        2.44700
N          9.44600        0.34100        0.27500
C         10.81400        0.27900        0.31400
S         11.54500       -0.01800       -1.20300
C         13.08900        0.13600       -0.46400
C         12.93100        0.33300        0.89100
N         11.62600        0.42300        1.32800
H          0.19400        0.46200       -0.69400
H          0.49000        0.79800        1.02900
H         -1.20700       -4.75300       -1.04500
H         -1.46200       -6.55400        0.68000
H         -0.85800       -6.11800        3.04600
H          0.02400       -3.87700        3.73900
H          2.53600        0.37800        1.93100
H          4.72300        0.76300       -1.09700
H          7.12700        0.91300       -0.96400
H          6.91700        0.63000        3.34100
H          4.47400        0.49900        3.20900
H          9.01800        0.07200       -0.59600
H         14.00600        0.06600       -1.03200
H         13.73500        0.43300        1.61000
