18
584-02-1.pdb
C          0.89200        0.06100        0.03600
C          2.41400        0.02400        0.07300
C          2.94800       -0.36100        1.45700
O          2.46900       -1.65700        1.80900
C          4.48100       -0.35400        1.48600
C          5.03200       -0.72500        2.85700
H          0.54500        0.35300       -0.96000
H          0.50100        0.78400        0.75800
H          0.46300       -0.92000        0.26400
H          2.80400        1.00600       -0.21700
H          2.75700       -0.70200       -0.67400
H          2.56600        0.34300        2.20600
H          2.80800       -2.28800        1.15200
H          4.85300        0.63800        1.20600
H          4.87100       -1.07200        0.75500
H          4.67800       -0.02800        3.62300
H          6.12700       -0.69100        2.84600
H          4.73200       -1.73700        3.14700
