32
58477-85-3.pdb
O          1.10800        0.26400       -0.19100
C          2.50100       -0.03300       -0.05200
C          2.94200       -0.13200        1.42500
O          4.36200       -0.21200        1.57800
C          2.43700        1.08500        2.21100
O          1.66700        1.91700        1.72600
N          2.89200        1.15600        3.50500
C          2.48200        2.20900        4.39700
C          3.71200        2.89300        4.89200
C          4.01800        3.04300        6.18700
C          2.87200       -1.33700       -0.79200
O          3.91800       -1.41800       -1.44300
N          2.06600       -2.44100       -0.69000
C          0.72600       -2.45000       -0.15900
C          0.13400       -3.81500       -0.27500
C         -0.22300       -4.56400        0.77600
H          0.94500        1.10500        0.29000
H          3.04100        0.77700       -0.55600
H          2.51000       -1.01900        1.89900
H          4.76100        0.52300        1.07500
H          3.55100        0.45400        3.82700
H          1.90900        1.74700        5.20700
H          1.83700        2.93100        3.88700
H          4.37400        3.31900        4.14000
H          3.37600        2.65700        6.97300
H          4.91700        3.57300        6.48800
H          2.38100       -3.22600       -1.24800
H          0.10600       -1.75900       -0.73600
H          0.76300       -2.11600        0.88200
H         -0.09100       -4.16600       -1.27900
H         -0.04800       -4.23500        1.79600
H         -0.72100       -5.51800        0.63600
