45
585-99-9.pdb
O          1.16400        0.03900       -1.02700
C          1.86900       -0.05200        0.20800
C          2.99900       -1.09800        0.17100
O          4.07700       -0.67300       -0.67600
C          3.79900       -0.78400       -2.07300
O          4.90200       -0.22500       -2.80200
C          5.00700        1.17600       -2.50600
C          6.08500        1.86000       -3.36200
O          6.24400        3.24100       -2.98900
C          5.14000        4.07800       -3.33500
O          5.43100        5.39500       -2.89000
C          4.93600        4.06600       -4.85800
O          6.11800        4.62200       -5.48700
C          4.71600        2.62900       -5.34700
O          4.59300        2.63000       -6.77300
C          5.87300        1.72300       -4.88700
O          5.68000        0.37700       -5.31700
C          3.60000       -2.26500       -2.43700
O          4.74500       -3.06800       -2.07500
C          2.39700       -2.79000       -1.65400
O          2.26300       -4.21300       -1.86800
C          2.55700       -2.53800       -0.14300
O          1.35700       -2.84500        0.57500
H          0.51600        0.76000       -0.92400
H          1.14500       -0.28800        0.99500
H          2.29600        0.93700        0.40900
H          3.41200       -1.10700        1.19100
H          2.91200       -0.22100       -2.37100
H          5.26200        1.31700       -1.44700
H          4.03200        1.64700       -2.66600
H          7.03200        1.35800       -3.12600
H          4.23500        3.75900       -2.80900
H          5.89600        5.83900       -3.62200
H          4.10700        4.71700       -5.15400
H          6.89200        4.32300       -4.96800
H          3.76700        2.24000       -4.96300
H          5.39500        3.06300       -7.12400
H          6.78600        2.06000       -5.39300
H          5.29900       -0.14100       -4.58100
H          3.46300       -2.39800       -3.51500
H          5.42200       -2.44800       -1.73900
H          1.46800       -2.34400       -2.01900
H          3.17900       -4.55600       -1.89000
H          3.32500       -3.22700        0.23700
H          0.79400       -3.37100       -0.02600
