19
586-42-5.pdb
C          3.14600       -1.47500        0.11500
C          2.60300       -0.07200        0.00900
O          1.59100        0.26600        0.62300
C          3.32200        0.90800       -0.85700
C          2.82500        2.21200       -0.96800
C          3.47900        3.14600       -1.77400
C          4.63300        2.77900       -2.47000
C          5.15100        1.47900       -2.37200
C          4.47900        0.55100       -1.55800
C          6.40400        1.07000       -3.12000
O          6.96200        1.95300       -3.84200
O          6.79800       -0.12800       -2.96400
H          2.49500       -2.06700        0.76600
H          4.14500       -1.46000        0.55700
H          3.16100       -1.95000       -0.86900
H          1.92700        2.50500       -0.42900
H          3.09600        4.15800       -1.86200
H          5.14500        3.50600       -3.09900
H          4.89700       -0.45200       -1.49600
