19
586-30-1.pdb
C         -1.72300       -1.59700        0.00700
C         -0.48100       -0.75100        0.02100
C          0.78100       -1.35300        0.00800
C          1.93800       -0.57000        0.01200
C          1.84800        0.82700        0.03000
C          0.59000        1.44200        0.02200
C         -0.56200        0.64700        0.02600
O         -1.80200        1.22100        0.02400
C          3.12200        1.59400       -0.00700
O          3.06900        2.80500        0.58600
O          4.14200        1.15000       -0.50400
H         -1.48100       -2.66500        0.01500
H         -2.31200       -1.39600       -0.89400
H         -2.33300       -1.38800        0.89400
H          0.87700       -2.43700       -0.01300
H          2.91300       -1.05500       -0.00900
H          0.49700        2.52200       -0.01700
H         -1.72100        2.18500       -0.05200
H          2.26700        2.99000        1.10400
