15
586-95-8.pdb
O          0.93400       -0.03300       -0.14900
C          2.34900       -0.01600       -0.04300
C          2.75600        1.09600        0.87800
C          3.48100        0.84200        2.04500
C          3.82800        1.91000        2.85800
N          3.51200        3.19500        2.59000
C          2.80700        3.41900        1.46000
C          2.41500        2.42000        0.58500
H          0.70400       -0.78600       -0.71700
H          2.78200        0.14000       -1.03700
H          2.68300       -0.98900        0.33200
H          3.76700       -0.16600        2.32700
H          4.38400        1.75500        3.77800
H          2.55300        4.45800        1.27100
H          1.84200        2.66400       -0.30300
