32
58632-95-4.pdb
C          3.12400        0.56600        1.38700
C          2.63400       -0.04100        0.06500
C          3.08000       -1.50500       -0.07500
C          1.09300        0.00100        0.08700
O          3.08300        0.75700       -1.06600
C          4.43100        0.88600       -1.26300
O          5.30000        0.35200       -0.57800
O          4.68400        1.71400       -2.33500
N          6.09200        1.82800       -2.47600
C          6.50400        2.55400       -3.46700
C          5.51200        3.17600       -4.32000
N          4.74500        3.68900       -5.02800
C          7.94700        2.74300       -3.75100
C          8.88800        2.08300       -2.94400
C         10.25500        2.20900       -3.19800
C         10.69600        2.99800       -4.25800
C          9.77100        3.66800       -5.05700
C          8.40100        3.54500       -4.80800
H          2.75500       -0.00300        2.24600
H          2.78900        1.60500        1.48200
H          4.21400        0.58500        1.46000
H          2.72200       -2.11300        0.76300
H          4.16800       -1.60700       -0.09600
H          2.71300       -1.94200       -1.01000
H          0.69300       -0.56900        0.93600
H          0.65800       -0.40900       -0.83000
H          0.72600        1.03100        0.17500
H          8.56700        1.45700       -2.11100
H         10.97600        1.68800       -2.57100
H         11.76000        3.09200       -4.46100
H         10.11800        4.28800       -5.88200
H          7.71300        4.08400       -5.45600
