24
587-33-7.pdb
N          5.19500        0.75100       -1.08500
C          4.51500        1.35900        0.12100
C          2.96500        1.34200        0.05200
O          2.46900        0.00500       -0.07000
C          2.43100        2.17700       -1.10400
C          2.26000        3.56100       -0.95000
C          1.78900        4.34300       -2.00900
C          1.49100        3.75600       -3.23800
C          1.66100        2.38600       -3.41000
C          2.12400        1.60300       -2.35200
C          4.96900        0.58500        1.36500
O          5.72100       -0.49900        1.03500
O          4.71800        0.89900        2.52000
H          6.14200        1.15300       -1.12300
H          4.74900        1.16200       -1.91400
H          4.88600        2.38500        0.22000
H          2.54800        1.73800        0.98800
H          3.06300       -0.46900       -0.67600
H          2.47700        4.04300        0.00200
H          1.64600        5.41300       -1.87400
H          1.11900        4.36500       -4.05700
H          1.42200        1.92200       -4.36400
H          2.23000        0.53300       -2.51300
H          5.75000       -0.52800        0.04700
