19
587-03-1.pdb
C          2.48600       -0.02000        0.00300
C          0.98600        0.01300        0.01400
C          0.29000        1.22600       -0.00700
C         -1.10500        1.23600       -0.02900
C         -1.81600        0.03500       -0.02900
C         -1.14300       -1.19100        0.01900
C         -1.87700       -2.50900       -0.01600
O         -3.14900       -2.42900        0.61400
C          0.26200       -1.18700        0.02900
H          2.90800        0.98900        0.02300
H          2.84500       -0.51900       -0.90100
H          2.85700       -0.55600        0.88300
H          0.82900        2.17000       -0.01300
H         -1.63800        2.18000       -0.05900
H         -2.90300        0.06200       -0.07300
H         -1.30500       -3.28100        0.50900
H         -2.01800       -2.82700       -1.05300
H         -2.99000       -2.09300        1.51300
H          0.80300       -2.13300        0.02800
