26
5870-68-8.pdb
C          3.57500       -2.05900        0.63500
C          2.94900       -0.77900        0.11100
O          3.26100       -0.68700       -1.28400
C          4.42300       -0.04400       -1.57300
O          5.01600        0.72500       -0.82900
C          4.93000       -0.49500       -2.92500
C          6.46800       -0.62100       -2.95500
C          6.96500       -1.63600       -1.91700
C          6.91500       -1.00600       -4.37700
C          8.42600       -1.11500       -4.53200
H          3.38200       -2.19200        1.70200
H          4.65700       -2.06000        0.46800
H          3.17600       -2.92300        0.09100
H          3.29300        0.09600        0.67500
H          1.85900       -0.82300        0.20900
H          4.57800        0.22800       -3.66900
H          4.48600       -1.47000       -3.16200
H          6.90000        0.35600       -2.70500
H          6.63200       -2.65000       -2.16100
H          6.61100       -1.39700       -0.91000
H          8.05800       -1.63800       -1.86200
H          6.54900       -0.25200       -5.08500
H          6.46000       -1.96000       -4.66900
H          8.92000       -0.18800       -4.22300
H          8.68300       -1.30500       -5.58100
H          8.83400       -1.94100       -3.94500
