29
58743-75-2.pdb
C          1.50400       -0.76900       -0.89400
C          2.57000       -0.07700       -0.05700
C          3.01400        1.23000       -0.65800
C          2.33600        2.41200       -0.36000
C          2.73800        3.62200       -0.93100
C          3.83700        3.69900       -1.80600
C          4.51400        2.50100       -2.08700
C          4.10400        1.28300       -1.53300
C          4.24300        4.99200       -2.40400
C          4.07100        6.20200       -1.70500
C          4.39900        7.43400       -2.27800
C          4.93400        7.48400       -3.56500
C          5.13500        6.29700       -4.27300
C          4.78900        5.06900       -3.69900
C          5.27000        8.74100       -4.15600
N          5.54200        9.76300       -4.63600
H          1.24300       -1.73200       -0.44300
H          1.85400       -0.95600       -1.91400
H          0.59200       -0.16700       -0.95600
H          3.43600       -0.73900        0.05700
H          2.18700        0.09900        0.95500
H          1.48600        2.40600        0.31900
H          2.16200        4.51200       -0.68600
H          5.38400        2.49500       -2.74100
H          4.65000        0.37600       -1.78400
H          3.67300        6.20200       -0.69200
H          4.23200        8.34700       -1.70900
H          5.55100        6.31900       -5.27800
H          4.93500        4.16900       -4.29300
