33
58780-82-8.pdb
C          0.95900        1.76200        0.96000
N          2.44100        1.66100        1.01000
C          2.94100        0.29100        1.31500
C          4.43700        0.25100        1.43000
C          5.07000        0.50400        2.65500
C          6.47100        0.44700        2.78500
O          7.10000        0.67200        3.98100
C          6.33000        0.94700        5.14300
C          7.26900        0.14800        1.65700
O          8.63600        0.11400        1.61300
C          9.41500        0.36900        2.77100
C          6.62400       -0.11400        0.42600
O          7.22100       -0.40600       -0.77500
C          8.41500       -1.18800       -0.73000
C          5.22900       -0.03600        0.32000
H          0.70700        2.80100        0.73000
H          0.56000        1.47800        1.93600
H          0.59500        1.09700        0.17300
H          2.81100        2.31600        1.71100
H          2.84400        1.96400        0.11400
H          2.59000       -0.37200        0.51600
H          2.47400       -0.02900        2.25500
H          4.45100        0.72900        3.52000
H          7.02000        1.03200        5.98800
H          5.63500        0.13100        5.36400
H          5.80400        1.90200        5.04200
H         10.46800        0.30400        2.47900
H          9.24800       -0.39300        3.53800
H          9.25000        1.38300        3.14700
H          8.52200       -1.68000       -1.70200
H          8.37000       -1.97300        0.03100
H          9.29100       -0.54800       -0.59700
H          4.78100       -0.23900       -0.65300
