28
588-67-0.pdb
C          0.98200       -0.05100        0.07600
C          2.50200       -0.06100        0.05600
C          3.08500        0.32200        1.41300
C          4.60800        0.31000        1.38900
O          5.08300        0.67800        2.68100
C          6.50800        0.68400        2.73200
C          6.95200        1.08200        4.11500
C          7.71700        0.21000        4.90300
C          8.14500        0.59600        6.17400
C          7.81400        1.85500        6.67100
C          7.05000        2.72800        5.89900
C          6.62000        2.34400        4.62900
H          0.59000       -0.32800       -0.90700
H          0.60000        0.94400        0.32600
H          0.59400       -0.76400        0.81000
H          2.85600        0.63700       -0.71100
H          2.85100       -1.06100       -0.22900
H          2.72800       -0.36700        2.19000
H          2.73300        1.31800        1.71200
H          4.98000        1.02500        0.64600
H          4.97400       -0.69200        1.13500
H          6.90800        1.40200        2.00500
H          6.88600       -0.31300        2.47700
H          7.98000       -0.77800        4.53200
H          8.73500       -0.08800        6.77800
H          8.14700        2.15400        7.66100
H          6.78400        3.70800        6.28800
H          6.01600        3.02800        4.03700
