35
5888-33-5.pdb
C          1.46500        1.00900       -1.23000
C          0.63500        0.58700        0.00100
C          1.45500        1.01700        1.23400
C         -0.82600        1.10700       -0.01600
C         -1.45000        0.40900       -1.24800
C         -0.74100       -0.95700       -1.26800
C          0.14700       -0.89500        0.00400
C          1.22700       -1.96100        0.02700
C         -0.79200       -0.94600        1.25400
C         -1.46600        0.44100        1.22500
O         -1.78400       -1.98100        1.14900
C         -1.75200       -2.93700        2.10800
O         -0.97500       -3.01000        3.04300
C         -2.84200       -3.90800        1.85300
C         -3.03100       -4.93200        2.69700
H          1.69000        2.08200       -1.19000
H          0.97600        0.83600       -2.19000
H          2.42000        0.47200       -1.25600
H          1.67100        2.09100        1.19400
H          2.41500        0.48900        1.26300
H          0.96700        0.83600        2.19400
H         -0.94100        2.19400       -0.02900
H         -1.25400        0.96600       -2.17000
H         -2.53600        0.29800       -1.15600
H         -0.14100       -1.06600       -2.17900
H         -1.45500       -1.78600       -1.26300
H          1.87900       -1.88700       -0.84900
H          0.79100       -2.96500        0.03300
H          1.85700       -1.86800        0.91800
H         -0.20600       -1.04300        2.17500
H         -1.21600        1.00500        2.13100
H         -2.55900        0.39200        1.16400
H         -3.46600       -3.76700        0.97800
H         -2.40200       -5.06400        3.57400
H         -3.82000       -5.66000        2.53600
