22
589-91-3.pdb
C          0.99700        0.12000        0.09200
C          2.52300        0.08900       -0.02600
C          3.03300        1.13100       -1.03200
C          2.74200        0.75300       -2.48700
C          3.22100       -0.65700       -2.83700
O          4.64500       -0.68300       -2.91300
C          2.73200       -1.70300       -1.83400
C          3.03300       -1.31300       -0.38600
H          0.65600        1.11000        0.41600
H          0.65400       -0.60900        0.83400
H          0.49900       -0.10900       -0.85500
H          2.92500        0.35000        0.96200
H          4.11600        1.24800       -0.90300
H          2.59300        2.11200       -0.81600
H          3.23100        1.48400       -3.14100
H          1.66400        0.82500       -2.67200
H          2.85600       -0.92100       -3.83500
H          5.00700       -0.44100       -2.04500
H          3.20800       -2.66800       -2.04300
H          1.65200       -1.84400       -1.95500
H          4.11800       -1.34900       -0.22300
H          2.59900       -2.05900        0.29100
