20
589-29-7.pdb
O          0.99300       -0.03700        0.12000
C          2.40000       -0.02800       -0.08600
C          2.85900       -1.31100       -0.72800
C          3.97600       -1.31500       -1.57400
C          4.41800       -2.50100       -2.17400
C          3.75500       -3.71000       -1.93100
C          4.17500       -4.97900       -2.62300
O          4.54900       -5.97400       -1.68000
C          2.65800       -3.71300       -1.05900
C          2.22000       -2.53200       -0.46200
H          0.76500        0.81600        0.52400
H          2.89800        0.09600        0.88100
H          2.63700        0.82700       -0.72700
H          4.50500       -0.38800       -1.78700
H          5.27500       -2.46700       -2.84200
H          5.03100       -4.80800       -3.28400
H          3.35200       -5.36200       -3.23500
H          5.13900       -5.54300       -1.03800
H          2.13000       -4.64200       -0.85500
H          1.35600       -2.55700        0.20100
