15
58909-39-0.pdb
C          1.03700        0.02700       -0.06700
N          2.49200       -0.09100       -0.06400
N          3.15500        1.14300       -0.02300
C          4.50400        1.27300       -0.23600
O          5.05300        2.36300       -0.31900
C          5.29100       -0.03700       -0.34300
O          6.49400       -0.05100       -0.56500
N          4.55600       -1.18900       -0.19600
C          3.19300       -1.28300       -0.11500
S          2.51600       -2.81200       -0.10200
H          0.71600        1.07200       -0.01500
H          0.63000       -0.51400        0.79300
H          0.64800       -0.41900       -0.98800
H          2.62000        2.00200        0.04300
H          5.07900       -2.05000       -0.27100
