22
59-00-7.pdb
O          1.23200        0.12400       -0.35200
C          2.48600        0.10100        0.14000
O          3.08800        1.11900        0.45300
C          3.09600       -1.25500        0.31600
C          2.69600       -2.30000       -0.42900
C          3.38700       -3.60100       -0.26100
O          2.96800       -4.59400       -0.84500
C          4.59200       -3.64800        0.59800
C          5.36400       -4.81100        0.68600
C          6.50800       -4.81800        1.48400
C          6.86700       -3.67700        2.20700
C          6.08100       -2.52700        2.11900
O          6.40400       -1.40400        2.83200
C          4.95000       -2.48600        1.29700
N          4.13500       -1.34800        1.22300
H          0.77100       -0.73200       -0.37100
H          1.92500       -2.27600       -1.18600
H          5.07900       -5.70100        0.13000
H          7.11900       -5.71700        1.54600
H          7.76000       -3.70100        2.82400
H          7.14000       -1.61500        3.43100
H          4.53500       -0.47200        1.56300
