17
59-48-3.pdb
O          1.43600       -0.11200        0.37300
C          2.71000       -0.01400        0.01600
N          3.49500       -1.10900       -0.24700
C          4.75500       -0.71400       -0.63900
C          5.86400       -1.47700       -1.02500
C          7.02500       -0.78700       -1.39100
C          7.07400        0.60500       -1.36100
C          5.95900        1.35100       -0.96000
C          4.77700        0.68000       -0.59500
C          3.49000        1.10400       -0.16500
H          1.14200       -1.03500        0.30400
H          3.20500       -2.07200       -0.17500
H          5.83000       -2.56000       -1.04900
H          7.90200       -1.34800       -1.70700
H          7.98600        1.12000       -1.65500
H          6.00500        2.43600       -0.94000
H          3.15800        2.12300       -0.02400
