14
59-67-6.pdb
O          1.16800       -0.19000       -0.00800
C          2.49000        0.06100        0.05600
O          3.00800        1.04500       -0.44100
C          3.25900       -0.94400        0.81900
C          2.91700       -2.29800        0.87100
C          3.72200       -3.17400        1.60000
C          4.84100       -2.66500        2.24100
N          5.20200       -1.36500        2.19900
C          4.40900       -0.53200        1.47900
H          0.84000       -0.89700        0.57800
H          2.06400       -2.69200        0.32800
H          3.49100       -4.23300        1.65500
H          5.50200       -3.31000        2.81300
H          4.73700        0.50500        1.45100
