25
59-92-7.pdb
N          0.67200        0.47400        0.41700
C          1.79600        1.41900        0.72200
C          2.92800        1.40300       -0.32200
C          2.51300        1.80400       -1.72100
C          2.53100        3.15700       -2.10600
C          2.11700        3.54700       -3.38300
C          1.68000        2.58000       -4.27700
O          1.25400        2.89800       -5.53700
C          1.66500        1.23800       -3.90700
O          1.22400        0.29300       -4.78800
C          2.08500        0.84000       -2.64500
C          1.22100        2.83100        0.91600
O         -0.13400        2.82400        0.87400
O          1.88100        3.84200        1.10700
H          1.01600       -0.47500        0.58400
H          0.50000        0.49600       -0.59500
H          2.19900        1.12500        1.69900
H          3.37400        0.40000       -0.35800
H          3.73800        2.06900        0.00600
H          2.86400        3.92300       -1.40600
H          2.13700        4.60000       -3.64800
H          1.33100        3.86200       -5.64400
H          0.98900        0.80100       -5.59100
H          2.06900       -0.21600       -2.39300
H         -0.39400        1.87500        0.74800
