14
590-90-9.pdb
C          1.07500       -0.01500       -0.08200
C          2.57700       -0.09200       -0.03600
O          3.15300       -1.07200        0.43800
C          3.33200        1.08200       -0.62900
C          4.83700        0.90000       -0.52000
O          5.25900       -0.23300       -1.27100
H          0.64600       -0.91500        0.36700
H          0.74300        0.05200       -1.12100
H          0.73400        0.85700        0.48100
H          3.03000        1.98800       -0.09400
H          3.03900        1.16600       -1.68000
H          5.16200        0.77500        0.51700
H          5.34700        1.77600       -0.93300
H          4.90500       -1.01400       -0.79600
