23
590-01-2.pdb
C          0.95200       -0.00300        0.08400
C          2.47200        0.01600        0.09400
C          3.00300        1.12300        0.99900
C          4.52900        1.14200        1.03800
O          4.98400        2.17200        1.93100
C          4.99500        1.81700        3.24700
O          4.66100        0.72200        3.68000
C          5.47700        2.96800        4.09400
C          5.44200        2.60300        5.56900
H          0.58600       -0.80100       -0.56900
H          0.55100        0.94700       -0.28400
H          0.55400       -0.17600        1.08900
H          2.84000        0.15900       -0.92800
H          2.84000       -0.95700        0.44000
H          2.60400        0.99500        2.01200
H          2.64000        2.10100        0.66000
H          4.92900        1.37400        0.04500
H          4.94300        0.16800        1.32700
H          4.83000        3.83400        3.91700
H          6.50200        3.21500        3.80000
H          4.42200        2.35600        5.88600
H          5.80100        3.43200        6.18400
H          6.07000        1.72800        5.76900
