21
59020-85-8.pdb
C          1.16200       -0.30400       -0.11100
C          2.67400       -0.15000       -0.12800
C          3.20300        0.32700       -1.46700
O          2.50600        0.56900       -2.44600
S          4.95700        0.52500       -1.50100
C          5.16500        1.08500       -3.21600
C          6.60100        1.33600       -3.51700
O          7.32800        0.28600       -4.00400
C          8.59400        0.73500       -4.20500
C          8.69300        2.06400       -3.86700
C          7.40500        2.45600       -3.42700
H          0.82800       -0.65200        0.87200
H          0.83000       -1.03000       -0.86000
H          0.66500        0.64800       -0.32100
H          3.13300       -1.11700        0.10800
H          2.96500        0.57300        0.64200
H          4.60200        2.01400       -3.36100
H          4.76400        0.33400       -3.90500
H          9.29600        0.00600       -4.58400
H          9.58300        2.67400       -3.92900
H          7.09700        3.43300       -3.08200
