13
591-07-1.pdb
C          3.37700       -1.23800       -0.77200
C          2.62300       -0.10900       -0.12600
O          1.39200       -0.07500       -0.10600
N          3.33300        0.91100        0.45800
C          4.69100        1.06700        0.54700
N          5.06000        2.20300        1.19600
O          5.54500        0.30700        0.11200
H          2.66600       -1.96000       -1.18500
H          3.99300       -1.75300       -0.03000
H          3.99300       -0.86000       -1.59200
H          2.74800        1.62200        0.86400
H          4.41900        2.87700        1.58200
H          6.05400        2.36900        1.29200
