12
591-54-8.pdb
N          2.33800        0.11900        0.20500
C          0.94900        0.08600        0.09300
C          0.22000        1.25500        0.09700
C         -1.14600        1.11800        0.01900
N         -1.76700       -0.07100       -0.05300
C         -0.96100       -1.14200       -0.03400
N          0.37900       -1.12300        0.03500
H          2.76400        0.72500       -0.48700
H          2.67100       -0.83900        0.12900
H          0.69000        2.22500        0.17100
H         -1.79800        1.98600        0.01700
H         -1.43600       -2.11600       -0.07700
