15
591-27-5.pdb
N         -2.43700        1.06900        0.17900
C         -1.25100        0.34800       -0.00800
C         -1.26800       -1.05000        0.01000
C         -0.07700       -1.78300       -0.02600
C          1.14900       -1.12100       -0.04000
C          1.16800        0.26900       -0.01100
O          2.34400        0.96100       -0.00100
C         -0.01600        1.00100        0.02400
H         -3.26700        0.59300       -0.16000
H         -2.38300        2.03100       -0.13900
H         -2.21400       -1.58400        0.05400
H         -0.11100       -2.86800       -0.02400
H          2.06700       -1.69900       -0.05600
H          3.07700        0.32400       -0.00200
H          0.03300        2.08400        0.08100
