20
591-24-2.pdb
C          1.04200        0.09200        0.14300
C          2.56800        0.06200        0.01100
C          3.07600        1.09400       -1.01000
C          2.72400        0.72400       -2.45200
C          3.20000       -0.67600       -2.81800
C          2.75300       -1.68100       -1.78200
O          2.26000       -2.76200       -2.09900
C          3.06500       -1.34100       -0.34100
H          0.69600        1.09400        0.41800
H          0.71200       -0.60100        0.92500
H          0.53900       -0.19600       -0.78600
H          2.98000        0.33200        0.99300
H          4.16700        1.17300       -0.92200
H          2.67100        2.08600       -0.77800
H          3.17500        1.45200       -3.13600
H          1.63900        0.79200       -2.59400
H          4.29300       -0.71300       -2.87500
H          2.79700       -0.96300       -3.79500
H          4.15200       -1.40500       -0.21500
H          2.61000       -2.09200        0.31500
