16
5910-89-4.pdb
C          1.83000       -1.49400       -0.04100
C          0.55900       -0.70000       -0.01000
N         -0.59900       -1.41200       -0.01600
C         -1.74000       -0.68900       -0.00500
C         -1.74000        0.69100        0.00400
N         -0.59900        1.41300        0.01300
C          0.55900        0.70100        0.00800
C          1.83000        1.49400        0.03900
H          1.61800       -2.56800       -0.01600
H          2.45400       -1.25600        0.82600
H          2.38700       -1.28300       -0.95900
H         -2.66300       -1.25800       -0.00600
H         -2.66300        1.25900        0.00400
H          1.61800        2.56800        0.01600
H          2.45400        1.25800       -0.82800
H          2.38700        1.28200        0.95700
