16
592-20-1.pdb
C          1.03000        0.07800       -0.06700
C          2.53800        0.01800       -0.03700
O          3.12700       -0.84400        0.61500
C          3.25900        1.08600       -0.85000
O          4.67600        0.99200       -0.69900
C          5.37900        0.65000       -1.80800
C          6.84200        0.53900       -1.49900
O          4.90700        0.47800       -2.92400
H          0.61500       -0.71400        0.56200
H          0.67900       -0.06200       -1.09200
H          0.69500        1.04500        0.31800
H          2.95700        2.06400       -0.46700
H          2.92800        1.00500       -1.89100
H          7.02600        0.66400       -0.42800
H          7.38600        1.31800       -2.03900
H          7.19800       -0.45100       -1.79400
