17
592-88-1.pdb
C          1.53100       -0.50800        0.83900
C          2.41600       -0.00300       -0.03100
C          3.27200        1.19900        0.22600
S          5.01600        0.71000        0.11700
C          5.76900        2.32800        0.45000
C          7.26000        2.18200        0.42400
C          8.07500        2.83500       -0.41500
H          0.94600       -1.38700        0.58400
H          1.37800       -0.07200        1.82100
H          2.52600       -0.48400       -1.00200
H          3.07600        1.62300        1.21600
H          3.05800        1.96200       -0.52900
H          5.45900        2.67900        1.43900
H          5.42700        3.04800       -0.29900
H          7.69800        1.49900        1.15100
H          7.69700        3.52800       -1.16000
H          9.14900        2.67700       -0.37700
