40
59279-60-6.pdb
C         11.06500        3.37700       -0.60000
O         10.44800        2.45700        0.30300
C          9.09700        2.59900        0.44200
O          8.41000        3.43800       -0.12100
C          8.60400        1.54700        1.41200
C          7.09900        1.62100        1.69400
C          6.64100        0.54900        2.70400
N          5.18100        0.50900        2.85600
C          4.44400       -0.17400        1.94000
O          4.96800       -0.74100        0.99700
O          3.09900       -0.12300        2.21500
C          2.22800       -0.80700        1.27000
C          2.51900       -2.31700        1.28700
C          0.75000       -0.57000        1.66400
C          2.39900       -0.22000       -0.14000
C          7.29800        0.61300        4.07700
O          7.49500       -0.37100        4.78000
O          7.54300        1.89500        4.46100
C          8.18700        2.00200        5.73200
H         12.14200        3.18100       -0.59400
H         10.90200        4.40900       -0.27500
H         10.69300        3.22200       -1.61700
H          9.16500        1.68300        2.34300
H          8.85500        0.57000        0.98500
H          6.56000        1.49800        0.74500
H          6.83100        2.61900        2.05900
H          6.94400       -0.42900        2.29200
H          4.71000        0.87500        3.67400
H          2.39500       -2.73500        2.29200
H          3.55300       -2.53200        1.00200
H          1.88000       -2.86300        0.58700
H          0.49900       -0.98100        2.64700
H          0.07000       -1.02800        0.93100
H          0.51500        0.50000        1.70100
H          3.41800       -0.31900       -0.51700
H          2.18100        0.85400       -0.13500
H          1.75000       -0.72000       -0.86400
H          8.59800        3.01100        5.82100
H          9.01600        1.29100        5.81600
H          7.46000        1.84300        6.53300
