31
59378-75-5.pdb
C          3.55300       -1.15200       -0.81200
C          2.83700       -0.08600        0.02600
C          2.99800        1.32600       -0.55100
C          1.33600       -0.42400        0.03600
O          3.26700       -0.13500        1.41000
C          4.55800        0.15000        1.73200
O          5.42200        0.47500        0.92100
N          4.80300        0.03900        3.07400
C          6.10400        0.28600        3.64400
C          6.11000       -0.53100        4.92000
C          4.65200       -0.49800        5.38200
C          3.84700       -0.38900        4.09000
C          4.24000       -1.71300        6.21000
O          5.15500       -2.22300        6.91600
O          3.02300       -2.03900        6.13000
H          3.19500       -1.15200       -1.84700
H          3.38600       -2.15000       -0.39000
H          4.63600       -1.00700       -0.83800
H          2.58400        1.39400       -1.56200
H          4.04400        1.63900       -0.60700
H          2.48900        2.06000        0.08400
H          0.91900       -0.42800       -0.97800
H          0.77300        0.30100        0.63500
H          1.15500       -1.40700        0.48600
H          6.17200        1.35800        3.86000
H          6.91100        0.01200        2.95800
H          6.79700       -0.11700        5.66500
H          6.43100       -1.55700        4.70200
H          4.48600        0.39700        5.99600
H          3.07700        0.38700        4.17300
H          3.37000       -1.31600        3.75900
