23
59382-59-1.pdb
C          3.21700       -0.87400       -0.58000
O          2.99800       -0.30400        0.71600
C          3.02900        1.05000        0.76100
O          3.22500        1.80000       -0.17800
C          2.79600        1.51200        2.16400
C          1.84900        0.81700        2.94200
C          1.53000        1.24000        4.23300
C          2.15900        2.36100        4.76100
C          3.11500        3.04500        3.99300
C          3.45800        2.65200        2.68200
C          4.47400        3.39200        1.85000
N          3.75200        4.18500        4.63500
O          3.01700        5.12400        4.96600
O          4.97000        4.11200        4.84100
H          3.73800       -1.82600       -0.44500
H          3.83100       -0.24100       -1.22700
H          2.25000       -1.06800       -1.05400
H          1.33800       -0.05600        2.53800
H          0.79200        0.69900        4.81800
H          1.90600        2.69800        5.76500
H          4.94800        4.22400        2.37400
H          3.99900        3.82600        0.96500
H          5.27500        2.71100        1.54500
