21
594-60-5.pdb
C          0.86900       -0.12500        0.01600
C          2.39700       -0.01100       -0.04500
C          2.99300       -1.42000       -0.19000
C          2.91000        0.98800       -1.12600
C          2.48700        0.62700       -2.55400
C          2.46700        2.42400       -0.81700
O          4.34400        1.01400       -1.08500
H          0.56700       -0.81400        0.81200
H          0.45300       -0.50800       -0.92100
H          0.40100        0.84000        0.23300
H          2.73900        0.35800        0.93200
H          2.69900       -1.89100       -1.13300
H          2.64800       -2.06700        0.62400
H          4.08600       -1.40100       -0.13900
H          1.40000        0.63400       -2.67700
H          2.86600       -0.35700       -2.85000
H          2.91000        1.34000       -3.27300
H          1.38300        2.55200       -0.88800
H          2.93500        3.13100       -1.51200
H          2.79100        2.72500        0.18600
H          4.67600        0.18400       -1.46500
