24
5949-29-1.pdb
O         -0.11700        0.67300       -0.74700
O          1.51300       -3.11100        1.06300
C          2.77600       -2.85100        0.67600
O          3.44600       -3.69500        0.11700
C          3.17400       -1.44700        1.02800
C          4.65100       -1.12900        0.76700
O          4.88600       -1.20000       -0.66500
C          5.04000        0.28700        1.22700
C          5.04200        0.48500        2.71500
O          3.82900        0.35800        3.27100
O          6.01800        0.77000        3.39100
C          5.56600       -2.14600        1.47700
O          6.40500       -2.76700        0.61400
O          5.57000       -2.35500        2.68000
H          0.50000        0.53400       -1.48000
H         -0.10400        1.63100       -0.60200
H          1.35700       -4.04600        0.80800
H          2.93300       -1.35000        2.08800
H          2.53900       -0.77000        0.44600
H          5.43500       -0.44600       -0.94700
H          4.40300        1.04800        0.76200
H          6.05800        0.51600        0.88100
H          3.99600        0.34700        4.23900
H          6.10200       -2.57700       -0.30400
