20
595-37-9.pdb
C          1.02700       -0.09300        0.00300
C          2.54800        0.00300       -0.08700
C          3.09200        1.04100       -1.10100
C          2.64100        0.72900       -2.53700
C          2.60100        2.45600       -0.73100
C          4.63000        1.05000       -1.05100
O          5.21400       -0.12100       -1.38600
O          5.30700        2.02200       -0.74200
H          0.74500       -0.85500        0.73600
H          0.58400       -0.38000       -0.95500
H          0.57900        0.85000        0.32700
H          2.92700       -0.99700       -0.33200
H          2.94200        0.23200        0.91300
H          1.55700        0.82800       -2.65200
H          2.91200       -0.28900       -2.83600
H          3.11100        1.41300       -3.25400
H          1.51400        2.54800       -0.80300
H          3.03300        3.21200       -1.39800
H          2.89600        2.71900        0.29200
H          4.59900       -0.83800       -1.62400
