23
5959-52-4.pdb
N          3.44700       -0.70100       -0.21400
C          2.15600       -0.16900       -0.02100
C          1.06300       -1.04600       -0.06200
C         -0.26200       -0.58200       -0.02500
C         -1.34900       -1.47000       -0.02600
C         -2.66000       -0.99500        0.00700
C         -2.90100        0.37500        0.03800
C         -1.83100        1.27300        0.04700
C         -0.50600        0.81000        0.01900
C          0.58400        1.69700        0.02800
C          1.90400        1.21700       -0.02500
C          3.04600        2.17100        0.01400
O          2.81700        3.34000       -0.62200
O          4.10600        1.91400        0.56200
H          3.57500       -1.62800        0.17800
H          4.18000       -0.05800        0.10800
H          1.24900       -2.11700       -0.12600
H         -1.18000       -2.54500       -0.04700
H         -3.49100       -1.69500        0.00800
H         -3.92300        0.74600        0.05800
H         -2.04600        2.33800        0.07100
H          0.39100        2.76400        0.10300
H          2.02800        3.34600       -1.19400
