47
596-75-8.pdb
C          4.93600       -2.26600        1.67700
C          4.48200       -1.07100        0.85600
C          5.04300       -1.14000       -0.56600
C          4.62700        0.09200       -1.37100
C          5.13300        0.12300       -2.83900
C          4.61000       -1.07200       -3.68200
C          3.08900       -1.19200       -3.78800
C          2.69900       -2.43200       -4.59700
C          1.19000       -2.55800       -4.71800
C          4.74800        1.42700       -3.54500
O          5.05300        1.69600       -4.70200
O          4.11300        2.29000       -2.70100
C          4.26400        3.68400       -2.99800
C          5.56900        4.16500       -2.38300
C          6.66800        0.16300       -2.81500
O          7.31600        1.08600       -2.32700
O          7.21700       -0.91800       -3.43200
C          8.56600       -0.75600       -3.88600
C          8.53100       -0.11500       -5.26200
H          4.51400       -2.21500        2.68600
H          6.02400       -2.29100        1.76100
H          4.60200       -3.20300        1.21700
H          4.81200       -0.14900        1.34800
H          3.38600       -1.04600        0.82200
H          4.68200       -2.05400       -1.04700
H          6.13700       -1.20100       -0.51800
H          5.00300        0.97600       -0.83700
H          3.53500        0.18000       -1.35400
H          5.00400       -2.01300       -3.27600
H          5.01600       -1.00400       -4.70400
H          2.67700       -0.29800       -4.27000
H          2.64100       -1.26700       -2.79200
H          3.09700       -3.33200       -4.11300
H          3.14000       -2.38200       -5.60000
H          0.72500       -2.63700       -3.73000
H          0.92800       -3.45300       -5.29100
H          0.76600       -1.68900       -5.23000
H          3.42100        4.20600       -2.53400
H          4.22600        3.88200       -4.07500
H          5.61400        3.89600       -1.32200
H          5.67600        5.24900       -2.47800
H          6.42400        3.68500       -2.86500
H          9.00900       -1.75400       -3.94900
H          9.16900       -0.17200       -3.18200
H          7.93200       -0.72200       -5.94800
H          9.53700       -0.00400       -5.67100
H          8.05500        0.87200       -5.22200
