21
5961-59-1.pdb
C          1.23700       -0.33500        0.05900
N          2.52700        0.31300       -0.05700
C          3.25900        0.66900        1.07500
C          2.78300        0.55500        2.38400
C          3.54800        0.98000        3.48100
C          4.79300        1.57300        3.28200
O          5.62600        2.04600        4.25600
C          5.19100        1.89600        5.60100
C          5.26300        1.73000        1.98000
C          4.50300        1.28600        0.89100
H          0.89700       -0.64300       -0.93500
H          0.49100        0.36000        0.46000
H          1.28200       -1.23000        0.68700
H          3.11900       -0.06900       -0.79000
H          1.81000        0.11700        2.58700
H          3.13400        0.83800        4.47300
H          5.93600        2.36800        6.24900
H          5.13100        0.83800        5.87600
H          4.23600        2.40400        5.77300
H          6.22100        2.20900        1.80500
H          4.88700        1.44700       -0.11200
