24
597-49-9.pdb
C          1.01400        0.21600        0.13500
C          2.52000        0.04500       -0.03100
C          2.96800       -1.20800       -0.82400
O          2.53400       -2.36600       -0.09500
C          2.35200       -1.29500       -2.23900
C          2.79600       -0.21300       -3.21300
C          4.51700       -1.24100       -0.83000
C          5.13100       -2.45100       -1.52500
H          0.81000        1.05000        0.81600
H          0.54800       -0.67500        0.56100
H          0.52900        0.44600       -0.81800
H          2.94600       -0.01000        0.98000
H          2.92700        0.95300       -0.49300
H          1.57000       -2.44900       -0.19400
H          1.25700       -1.27600       -2.16600
H          2.57100       -2.27700       -2.67600
H          2.62500        0.79000       -2.81300
H          2.23000       -0.30000       -4.14700
H          3.85600       -0.31200       -3.46400
H          4.87200       -1.25600        0.20900
H          4.91700       -0.32700       -1.28500
H          4.75500       -3.38800       -1.10600
H          6.21900       -2.43900       -1.39600
H          4.93000       -2.44300       -2.60000
