24
59777-95-6.pdb
O          1.24000       -0.83500        0.59300
C          2.20100        0.01900        0.14800
O          2.24500        1.19200        0.48000
C          3.16100       -0.66900       -0.83400
C          4.55000       -0.03400       -0.78700
S          5.68900       -1.38900       -0.43500
C          4.51300       -2.65600       -0.97100
N          3.20300       -2.14200       -0.52000
C          4.64700       -3.00200       -2.43500
C          3.62200       -2.89700       -3.38000
C          3.85000       -3.26400       -4.70700
C          5.10000       -3.74900       -5.05500
N          6.11100       -3.89000       -4.17900
C          5.86100       -3.52000       -2.90100
H          1.36200       -1.71100        0.16000
H          2.71500       -0.52700       -1.82600
H          4.67100        0.75100       -0.03600
H          4.80800        0.37800       -1.76800
H          4.71200       -3.57700       -0.40900
H          3.29700       -2.20500        0.50200
H          2.63400       -2.54200       -3.10200
H          3.07000       -3.17800       -5.45500
H          5.32500       -4.04600       -6.07500
H          6.70600       -3.66000       -2.23000
