14
5977-14-0.pdb
C          1.04000       -0.08900        0.04000
C          2.53500       -0.02700       -0.13800
O          3.01900        0.34600       -1.20800
C          3.36800       -0.44300        1.05300
C          4.87100       -0.40200        0.93700
N          5.42200        0.00600       -0.23300
O          5.59400       -0.73000        1.87600
H          0.54900        0.23300       -0.88300
H          0.73800        0.57800        0.85100
H          0.73800       -1.11600        0.25900
H          3.09300       -1.47500        1.30100
H          3.09300        0.21000        1.88900
H          4.84500        0.28300       -1.02600
H          6.42900        0.03800       -0.32300
