18
598-75-4.pdb
C          0.89300        0.03100       -0.12800
C          2.42200        0.04700       -0.06000
C          2.95900        1.15300       -0.97800
C          2.94200        0.22300        1.38300
C          2.49700       -0.88700        2.33000
O          4.37100        0.24700        1.38100
H          0.55200       -0.07400       -1.16400
H          0.47100        0.95700        0.27500
H          0.47400       -0.80900        0.43300
H          2.79700       -0.90600       -0.45500
H          2.63000        2.14100       -0.63900
H          2.60100        1.01200       -2.00400
H          4.05300        1.15000       -1.00900
H          2.60800        1.18600        1.78400
H          2.83100       -1.86600        1.96800
H          1.41200       -0.91000        2.45700
H          2.95000       -0.74700        3.31800
H          4.68100       -0.60000        1.02000
