14
598-94-7.pdb
C          1.10300       -0.00800        0.02900
N          2.55500       -0.02000       -0.01800
C          3.28600        0.27100        1.20300
C          3.29600       -0.28700       -1.14600
N          2.60000       -0.54800       -2.27600
O          4.52300       -0.29700       -1.17700
H          0.73700        0.23000        1.03000
H          0.72900       -0.99300       -0.26400
H          0.73100        0.74200       -0.67600
H          2.61000        0.46900        2.03800
H          3.92200        1.14700        1.03800
H          3.92400       -0.58400        1.45000
H          1.59800       -0.58300       -2.32700
H          3.14000       -0.75400       -3.10500
