22
598-65-2.pdb
C          1.52400        1.57100       -0.47200
N          2.88300        1.08100       -0.17700
C          3.77000        0.95500       -1.34300
C          3.44100        1.45400        1.02800
N          2.59000        1.49600        2.07400
N          4.66500        1.75800        1.27600
O          0.77200       -1.85500        1.08800
S          2.05200       -2.44000        0.32100
O          1.96900       -1.58400       -1.03000
O          3.23800       -2.01100        1.00900
O          1.76100       -3.81400        0.00200
H          1.21800        1.31400       -1.49100
H          1.45800        2.65700       -0.35200
H          0.80000        1.09400        0.20100
H          3.22600        0.58200       -2.21800
H          4.55000        0.21600       -1.12300
H          4.23500        1.90800       -1.60200
H          2.10600        0.61500        2.20000
H          3.13900        1.68700        2.91000
H          5.23400        1.70100        0.43500
H         -0.01300       -2.07700        0.54700
H          2.28000       -0.69500       -0.76200
