11
598-50-5.pdb
C          0.96200       -0.06800        0.01400
N          2.39800        0.03300        0.07300
C          3.14000        1.01100        0.63500
N          2.47400        2.02400        1.22000
O          4.36400        0.97900        0.61500
H          0.69500       -0.98700       -0.51400
H          0.56000        0.79800       -0.51800
H          0.56000       -0.09300        1.03100
H          2.95700       -0.69900       -0.34800
H          1.47100        2.08100        1.25300
H          3.02400        2.75900        1.64200
