29
599-61-1.pdb
N         -0.27400        1.48600       -2.36300
C         -0.34100        0.72900       -1.18800
C          0.02100        1.30400        0.03400
C         -0.16100        0.61300        1.23400
C         -0.75800       -0.64800        1.23100
C         -1.21000       -1.18300        0.02200
C         -0.99400       -0.50400       -1.18300
S         -2.04800       -2.75300       -0.03200
O         -1.72000       -3.36100       -1.31700
O         -1.73600       -3.44100        1.19900
C         -3.80500       -2.45900       -0.05400
C         -4.46500       -2.32200       -1.27900
C         -5.82500       -2.02000       -1.29100
C         -6.52300       -1.90500       -0.08500
C         -5.89000       -2.14200        1.14000
N         -6.56900       -1.89200        2.33900
C         -4.51300       -2.38500        1.15000
H          0.44600        2.20100       -2.35300
H         -0.25100        0.93200       -3.21500
H          0.45500        2.30000        0.06000
H          0.14400        1.07100        2.17300
H         -0.88700       -1.16700        2.17900
H         -1.35200       -0.93500       -2.11400
H         -3.92600       -2.41100       -2.22000
H         -6.34000       -1.84900       -2.23300
H         -7.57500       -1.63100       -0.11000
H         -7.57500       -2.01700        2.27900
H         -6.17200       -2.36300        3.14700
H         -3.99400       -2.50300        2.09800
