28
599-91-7.pdb
C          1.04200        0.37200       -0.03100
C          2.54500        0.15800        0.05100
C          2.95400       -0.30300        1.44400
O          4.36500       -0.47200        1.51300
S          4.94000       -1.01900        2.94000
O          4.58700       -0.04500        3.95600
O          4.54600       -2.40800        3.07900
C          6.70800       -1.00100        2.76700
C          7.48000       -0.18000        3.59300
C          8.87300       -0.24700        3.52400
C          9.49800       -1.13300        2.63700
C         10.99500       -1.23300        2.58300
C          8.71100       -1.94300        1.80600
C          7.31600       -1.88200        1.86900
H          0.75400        0.70500       -1.03300
H          0.71500        1.13300        0.68500
H          0.50100       -0.55400        0.18700
H          3.06900        1.08700       -0.20300
H          2.85800       -0.58300       -0.69300
H          2.46200       -1.25300        1.67900
H          2.64500        0.44400        2.18400
H          7.01200        0.49500        4.30600
H          9.46600        0.38500        4.18300
H         11.46900       -0.55800        3.30300
H         11.35700       -0.96800        1.58500
H         11.31300       -2.25300        2.82400
H          9.18500       -2.64000        1.11700
H          6.71700       -2.53700        1.24000
