20
59997-51-2.pdb
C          1.04700        0.05600        0.08100
C          2.58700        0.05300        0.05100
C          3.08200        1.35100        0.70400
C          3.08700       -1.15800        0.84500
C          3.07100       -0.02600       -1.41700
O          2.27100       -0.07600       -2.35600
C          4.55600       -0.04400       -1.70700
C          5.07400       -1.40700       -1.75700
N          5.52500       -2.47800       -1.76100
H          0.66700        0.11400        1.10700
H          0.63700       -0.85300       -0.37600
H          0.64000        0.91200       -0.47200
H          2.70200        1.44800        1.72800
H          2.75300        2.23000        0.13700
H          4.17400        1.39300        0.76600
H          2.70900       -1.14100        1.87400
H          4.18000       -1.18300        0.90300
H          2.75800       -2.09600        0.38200
H          5.09600        0.54700       -0.96300
H          4.71700        0.46000       -2.66700
