15
   
C         -1.43700       -0.05400       -0.02900
C         -0.77500        1.17500       -0.02200
C          0.61100        1.17300       -0.01900
N          1.35900        0.05800       -0.01100
C          0.69800       -1.12500       -0.00900
C         -0.68500       -1.23200       -0.04000
C         -1.28500       -2.58100       -0.03600
O         -0.74400       -3.54000        0.48500
O         -2.46200       -2.66100       -0.69000
O          1.32000        2.33600       -0.02000
H         -2.52200       -0.07300        0.00900
H         -1.34000        2.10000       -0.00900
H          1.33600       -2.00500        0.01400
H         -2.70300       -1.88600       -1.22900
H          0.69900        3.07700       -0.04500
