36
60-00-4.pdb
O          3.36000       -0.60900       -3.22700
C          4.65300       -0.28000       -3.46400
O          5.23800       -0.59300       -4.48900
C          5.27200        0.55400       -2.34500
N          4.64800        0.27500       -0.99100
C          4.98800       -1.14500       -0.60600
C          4.40600       -1.60000        0.76700
N          4.61300       -3.04000        1.15400
C          6.10200       -3.30300        1.21000
C          6.43500       -4.75500        1.54300
O          5.52800       -5.62600        1.04000
O          7.43300       -5.10800        2.14700
C          4.08600       -3.20600        2.57000
C          2.58100       -2.95800        2.67100
O          1.90900       -3.33000        1.55500
O          2.02700       -2.49900        3.65700
C          5.33000        1.18400        0.01100
C          5.08500        2.66700       -0.24400
O          3.86300        2.91700       -0.76600
O          5.88200        3.54600        0.04200
H          3.09500       -0.28500       -2.34100
H          5.09500        1.59600       -2.63200
H          6.35200        0.36900       -2.32100
H          6.07800       -1.26000       -0.61100
H          4.58900       -1.83500       -1.35800
H          3.32900       -1.40100        0.71800
H          4.81500       -0.97100        1.56400
H          6.58400       -2.65100        1.94800
H          6.55400       -3.13200        0.22900
H          4.82300       -5.13100        0.57300
H          4.59700       -2.51900        3.25500
H          4.24300       -4.23300        2.91700
H          2.54300       -3.63100        0.87300
H          6.41200        1.00400        0.02200
H          4.92800        1.01000        1.01300
H          3.37900        2.07700       -0.90000
