30
60-10-6.pdb
S          0.97700        0.27300       -0.41600
C          2.60800       -0.07400       -0.11400
N          3.31500        0.95800        0.47800
N          4.66100        0.84900        0.84100
C          5.04900        1.63800        1.95900
C          4.28800        2.70100        2.47300
C          4.76900        3.50700        3.51100
C          6.03300        3.27800        4.04100
C          6.81700        2.24500        3.53500
C          6.33000        1.43900        2.50000
N          3.32500       -1.23100       -0.38400
N          2.76600       -1.93500       -1.25400
C          3.52500       -3.01600       -1.74200
C          4.81400       -3.36000       -1.31300
C          5.50300       -4.42500       -1.90300
C          4.91500       -5.16000       -2.93000
C          3.63600       -4.83900       -3.36300
C          2.94800       -3.77400       -2.77200
H          2.93800        1.89200        0.36100
H          4.96300       -0.12200        0.96500
H          3.29600        2.93300        2.09100
H          4.15500        4.31800        3.89500
H          6.41100        3.91300        4.83800
H          7.81200        2.07300        3.93700
H          6.97300        0.65700        2.10300
H          5.29900       -2.79600       -0.52300
H          6.50600       -4.67400       -1.56400
H          5.45700       -5.98100       -3.39400
H          3.17000       -5.40800       -4.16500
H          1.94900       -3.52300       -3.12600
