52
60-33-3.pdb
C          8.52500       -2.00300        2.75000
C          8.29500       -1.27400        1.43900
C          7.93500        0.18800        1.67700
C          7.70400        0.91200        0.35200
C          7.34800        2.36800        0.61300
C          7.11900        3.15000       -0.64700
C          6.80000        4.45300       -0.63200
C          6.60100        5.24300        0.62600
C          7.51300        6.43000        0.70300
C          7.07000        7.69300        0.84000
C          5.60900        8.02300        0.88900
C          5.34500        9.51000        1.04300
C          3.84000        9.76600        1.07200
C          3.56500       11.25600        1.22200
C          2.06900       11.54900        1.25400
C          1.82700       13.04900        1.40400
C          0.34000       13.37900        1.43900
C          0.09800       14.86700        1.58800
O         -1.21500       15.17800        1.62100
O          0.96900       15.71700        1.67200
H          8.78200       -3.04900        2.55900
H          7.62600       -1.98000        3.37400
H          9.34500       -1.54600        3.31300
H          7.48800       -1.76800        0.88500
H          9.20000       -1.33600        0.82400
H          8.74000        0.68300        2.23400
H          7.03100        0.25200        2.29600
H          6.89400        0.42600       -0.20500
H          8.60800        0.85700       -0.26700
H          8.16300        2.83500        1.17900
H          6.44100        2.40300        1.23000
H          7.20500        2.63900       -1.60200
H          6.62500        4.97100       -1.57400
H          6.77700        4.65100        1.52900
H          5.54300        5.51800        0.66300
H          8.58200        6.24000        0.69000
H          7.79400        8.50000        0.92800
H          5.14600        7.49400        1.73200
H          5.13200        7.67400       -0.03600
H          5.80100       10.05700        0.21000
H          5.80500        9.87600        1.96800
H          3.38400        9.21600        1.90500
H          3.38000        9.39200        0.14900
H          4.03100       11.79600        0.38800
H          4.03400       11.62000        2.14500
H          1.60400       11.01000        2.08800
H          1.60100       11.18500        0.33100
H          2.30600       13.58200        0.57200
H          2.30900       13.40700        2.32300
H         -0.13200       12.87000        2.28600
H         -0.13500       13.04700        0.51000
H         -1.81200       14.40800        1.54500
