13
60-56-0.pdb
C          0.17200       -2.21100       -0.02800
N          0.57800       -0.82600        0.00200
C          1.88800       -0.38900        0.00200
C          1.90000        0.95100       -0.00100
N          0.60500        1.40200       -0.00500
C         -0.27000        0.30300       -0.00600
S         -1.91900        0.40100       -0.01900
H          1.04300       -2.87000        0.02400
H         -0.37600       -2.39900       -0.95500
H         -0.49000       -2.41000        0.82000
H          2.72500       -1.07100        0.00300
H          2.74200        1.62500       -0.00400
H          0.30400        2.36700       -0.01500
