26
60-80-0.pdb
C          1.06600       -0.10700        0.06200
N          2.47300       -0.06000        0.46800
N          3.23700        1.06200        0.06200
C          4.53100        0.65700       -0.26300
O          5.49900        1.31200       -0.61300
C          4.55900       -0.81100       -0.09500
C          3.30900       -1.16000        0.24100
C          2.81500       -2.56900        0.28800
C          2.74600        2.37400        0.04900
C          2.96000        3.17200       -1.08100
C          2.40200        4.44800       -1.15500
C          1.67600        4.95500       -0.07400
C          1.49600        4.17900        1.07100
C          2.01300        2.88400        1.12600
H          0.57600        0.87000        0.09000
H          0.51000       -0.75500        0.74600
H          0.96100       -0.50200       -0.95500
H          5.40700       -1.42100       -0.34300
H          3.63700       -3.28800        0.22100
H          2.14800       -2.75500       -0.56300
H          2.26300       -2.76800        1.21000
H          3.51600        2.78100       -1.93000
H          2.52700        5.04100       -2.05800
H          1.25100        5.95100       -0.13200
H          0.95700        4.58800        1.92100
H          1.88000        2.28800        2.02600
