16
600-21-5.pdb
C          0.99700       -0.06200        0.06300
N          2.45700        0.03200        0.02300
C          2.91100        1.32100       -0.58500
C          2.47100        2.54900        0.20900
C          4.44800        1.31100       -0.60700
O          4.95600        0.50600        0.36400
O          5.14300        1.96200       -1.37100
H          0.71300       -1.06300        0.40100
H          0.55700        0.09400       -0.92700
H          0.56400        0.65000        0.77100
H          2.78000       -0.71900       -0.59800
H          2.56500        1.37400       -1.62300
H          2.76800        2.46800        1.26200
H          1.38800        2.69400        0.16800
H          2.93900        3.45600       -0.18900
H          4.18200        0.10400        0.82900
