29
60075-23-2.pdb
C          0.94900       -0.12600       -0.23100
O          2.32700        0.17700       -0.04700
C          3.01300       -0.58400        0.86100
C          2.65300       -1.90400        1.16700
C          3.42700       -2.68100        2.03500
C          4.58100       -2.15500        2.62000
C          5.43800       -2.99500        3.53800
C          4.73400       -3.57800        4.75400
O          5.05300       -4.66700        5.23000
N          3.75800       -2.77600        5.32900
N          3.09000       -3.22100        6.49200
C          4.95300       -0.84300        2.30000
C          4.17700       -0.05100        1.44000
O          4.71200        1.19500        1.22900
C          3.79400        2.25100        0.97700
H          0.52800        0.63200       -0.89900
H          0.40600       -0.07500        0.72000
H          0.80900       -1.09600       -0.71600
H          1.78700       -2.37600        0.71400
H          3.12500       -3.70800        2.23300
H          6.29400       -2.41700        3.90700
H          5.84000       -3.82900        2.95000
H          3.59700       -1.82700        4.99600
H          3.69500       -3.93300        6.92500
H          2.27100       -3.75800        6.19400
H          5.86400       -0.41500        2.71700
H          4.31600        3.19300        1.17400
H          2.92700        2.20900        1.64400
H          3.49400        2.26800       -0.07500
