19
6009-70-7.pdb
N          0.44100        1.64300        0.47700
N          1.37700       -1.04000        2.27800
O          0.57800       -1.38400       -2.60100
O          1.78400       -0.31200       -0.56000
C          3.10100       -0.07900       -0.68300
O          3.61500        0.97600       -0.37400
C          3.85100       -1.32000       -1.24300
O          3.03200       -2.23400       -1.79000
O          5.06300       -1.44600       -1.15900
H          1.05700        2.24400        1.04300
H         -0.06800        2.32600       -0.10000
H         -0.27400        1.32900        1.14600
H          2.37300       -1.25400        2.20700
H          1.32500       -0.02500        2.32500
H          0.98700       -1.29900        1.37100
H          0.59100       -0.48900       -2.98400
H         -0.12900       -1.31100       -1.93500
H          1.38700        0.53100       -0.18900
H          2.09300       -1.91500       -1.85600
