20
601-79-6.pdb
C          0.99600       -0.03000        0.05600
C          2.53600       -0.04600        0.07000
C          2.96900        0.91000        1.19700
C          3.13200       -1.47300        0.25300
C          2.77900       -2.45500       -0.86100
O          3.53500       -3.57800       -0.90700
O          1.86200       -2.29900       -1.65400
C          4.62900       -1.51700        0.46800
O          5.38200       -0.57400       -0.12500
O          5.15100       -2.48200        1.02200
H          0.62400        1.00000        0.00000
H          0.58500       -0.48500        0.96300
H          0.57900       -0.55100       -0.80700
H          2.87400        0.36800       -0.88800
H          2.59400        0.56800        2.16800
H          2.57100        1.91500        1.02000
H          4.05400        1.01100        1.27400
H          2.68500       -1.88600        1.17100
H          4.24700       -3.66400       -0.23000
H          4.91600        0.10300       -0.65000
