60
6015-57-2.pdb
C          0.95400       -0.42600       -0.90200
C          2.46500       -0.50800       -1.00900
O          3.00400        0.81500       -1.05600
C          4.35400        0.93400       -1.28000
C          5.21800       -0.17000       -1.29500
C          6.57900       -0.02200       -1.58500
C          7.09400        1.23600       -1.89200
C          6.24200        2.34600       -1.91500
O          6.67600        3.59800       -2.29300
C          7.73000        3.62000       -3.26100
C          7.64000        4.89800       -4.07500
C          4.88300        2.21700       -1.53900
O          4.16700        3.39500       -1.53000
C          3.09000        3.49600       -0.59600
C          2.92900        4.95100       -0.18100
C          7.42800       -1.24500       -1.63800
O          6.93400       -2.28300       -2.06200
N          8.70300       -1.11100       -1.12200
C          9.70900       -2.06800       -1.12300
C          9.77500       -3.10600       -1.97300
C         10.93100       -4.06000       -1.95600
O         11.02200       -4.93400       -2.81200
C         11.90600       -3.88800       -0.82600
C         11.73100       -2.74100        0.05100
C         10.73500       -1.86800       -0.12000
C         12.87500       -4.79300       -0.58500
N         13.38000       -5.84100       -1.33700
C         14.35000       -6.46600       -0.55700
C         15.12000       -7.58200       -0.78400
C         15.82000       -8.12500        0.30600
C         15.72500       -7.55800        1.59500
C         14.97400       -6.40600        1.80700
C         14.31800       -5.89100        0.71600
O         13.49700       -4.78600        0.69600
H          0.52000       -1.43000       -0.85800
H          0.53200        0.10300       -1.76200
H          0.65800        0.12600       -0.00500
H          2.72000       -1.05600       -1.92400
H          2.85000       -1.03500       -0.12900
H          4.86100       -1.17600       -1.09100
H          8.14200        1.33700       -2.15300
H          7.66400        2.77400       -3.95600
H          8.69100        3.58700       -2.73600
H          6.70500        4.92200       -4.64400
H          8.47600        4.96600       -4.77800
H          7.64900        5.77800       -3.42700
H          3.27300        2.90600        0.30900
H          2.16500        3.16600       -1.08200
H          3.81900        5.29900        0.35300
H          2.06300        5.07100        0.47800
H          2.80200        5.60000       -1.05300
H          8.87000       -0.28200       -0.56300
H          9.03100       -3.30600       -2.73400
H         12.45900       -2.57300        0.83900
H         10.66400       -1.01600        0.54800
H         13.45400       -5.74600       -2.34100
H         15.16400       -8.05600       -1.75800
H         16.42100       -9.02200        0.16800
H         16.22900       -8.03200        2.43400
H         14.86600       -5.95900        2.78800
