31
60212-30-8.pdb
C          1.03900        0.08200       -0.02800
C          2.55500        0.07500       -0.01400
C          3.08100        0.70600        1.26900
C          4.60300        0.70200        1.28400
C          5.12300        1.33100        2.56800
C          6.64500        1.33000        2.59000
C          7.14600        1.96300        3.88300
C          8.60700        1.97500        3.93500
C          9.80300        2.01600        4.01500
C         11.25700        2.11700        4.16800
C         11.60300        3.19500        5.18000
H          0.66500       -0.37100       -0.95000
H          0.65600        1.10600        0.03400
H          0.64200       -0.48400        0.82100
H          2.93300        0.62700       -0.88300
H          2.91900       -0.95500       -0.10000
H          2.70000        0.15400        2.13800
H          2.71300        1.73600        1.35500
H          4.98400        1.25900        0.41900
H          4.97300       -0.32700        1.19700
H          4.73600        0.78100        3.43500
H          4.75400        2.36100        2.64900
H          7.02900        1.88600        1.72600
H          7.02100        0.30300        2.49900
H          6.75300        1.41300        4.74400
H          6.76900        2.99200        3.96100
H         11.71800        2.35300        3.20300
H         11.66300        1.15500        4.49900
H         11.22300        4.17200        4.86100
H         12.68900        3.27200        5.30000
H         11.16500        2.97200        6.15900
