36
603-45-2.pdb
O          2.25600        0.02100        0.09200
C          0.89300       -0.00700        0.03900
C          0.20600       -1.06000       -0.55500
C         -1.19700       -1.03600       -0.58600
C         -1.91100        0.02600       -0.00500
C         -1.19100        1.07600        0.58300
C          0.20600        1.05900        0.60400
C         -3.40600        0.07400       -0.03400
C         -4.06300        0.81000       -1.16100
C         -4.32600        2.18800       -1.06500
C         -4.92200        2.88200       -2.12700
C         -5.23500        2.19800       -3.29600
O         -5.79400        2.83400       -4.36600
C         -4.98000        0.83700       -3.41200
C         -4.40100        0.14100       -2.34500
C         -4.15600       -0.49300        0.96700
C         -3.54200       -1.12900        2.14600
C         -4.27600       -1.61700        3.15900
C         -5.75400       -1.53100        3.14100
O         -6.42800       -1.92800        4.07800
C         -6.38200       -0.95300        1.93300
C         -5.63000       -0.49400        0.91900
H          2.60600       -0.76100       -0.36600
H          0.73600       -1.90000       -0.99400
H         -1.72400       -1.85600       -1.07200
H         -1.71400        1.91900        1.02500
H          0.75500        1.87900        1.05800
H         -4.06500        2.73900       -0.16400
H         -5.13100        3.94300       -2.02100
H         -5.86400        3.78200       -4.16600
H         -5.22600        0.31800       -4.33400
H         -4.20600       -0.92200       -2.45200
H         -2.46100       -1.19300        2.23400
H         -3.83500       -2.08000        4.03200
H         -7.46200       -0.93000        1.91000
H         -6.14600       -0.12000        0.04200
