34
603-34-9.pdb
C          1.40300       -0.28800        0.05900
C          0.50500       -1.09200        0.75600
C         -0.86700       -0.83400        0.68700
C         -1.37300        0.22000       -0.10100
C         -0.44600        1.01500       -0.80000
C          0.92800        0.77000       -0.71200
N         -2.80100        0.46500       -0.19400
C         -3.31100        1.82000       -0.30900
C         -4.45000        2.10700       -1.08800
C         -4.96600        3.40300       -1.17200
C         -4.33800        4.44800       -0.50700
C         -3.19600        4.19800        0.25100
C         -2.69600        2.89500        0.35900
C         -3.72400       -0.65500       -0.24700
C         -4.99600       -0.58100        0.35400
C         -5.91800       -1.62400        0.23300
C         -5.57300       -2.78200       -0.45800
C         -4.30800       -2.89600       -1.02800
C         -3.39600       -1.84000       -0.93100
H          2.47000       -0.48500        0.11500
H          0.87100       -1.92200        1.35400
H         -1.54400       -1.46600        1.25800
H         -0.78900        1.82700       -1.43200
H          1.62400        1.40300       -1.25600
H         -4.95000        1.31800       -1.64300
H         -5.86500        3.58900       -1.75700
H         -4.73600        5.45700       -0.57500
H         -2.69600        5.01500        0.76700
H         -1.82200        2.72800        0.98300
H         -5.28500        0.30500        0.91600
H         -6.90600       -1.52700        0.67600
H         -6.29000       -3.59300       -0.55500
H         -4.03100       -3.80100       -1.56200
H         -2.43000       -1.94300       -1.41900
