41
6048-82-4.pdb
C          0.92000       -0.04100       -0.12500
C          2.43900       -0.03100       -0.11000
C          2.96800        0.05700        1.31700
C          4.49200        0.06800        1.33500
C          5.01200        0.15400        2.76600
C          6.53400        0.16300        2.78400
C          7.05800        0.24700        4.21300
C          8.57900        0.25600        4.21300
C          9.12900        0.34500        5.62900
C         10.64500        0.36500        5.61700
O         11.29900        0.28900        4.58300
C         11.35500        0.47400        6.91800
C         10.66900        0.59000        8.13200
C         11.38200        0.64200        9.33000
C         12.77500        0.57700        9.31600
C         13.46300        0.47600        8.10900
C         12.75500        0.43000        6.91000
H          0.55100       -0.10400       -1.15300
H          0.52000        0.87200        0.32700
H          0.53100       -0.90000        0.43200
H          2.80300        0.82100       -0.69600
H          2.81400       -0.94100       -0.59200
H          2.60000       -0.79500        1.90200
H          2.58800        0.96700        1.79800
H          4.86500        0.92100        0.75500
H          4.87600       -0.84100        0.85700
H          4.64100       -0.69900        3.34800
H          4.63100        1.06400        3.24500
H          6.90700        1.01600        2.20300
H          6.91600       -0.74600        2.30300
H          6.69000       -0.60700        4.79500
H          6.68000        1.15600        4.69500
H          8.94500        1.10600        3.62200
H          8.95600       -0.65300        3.72800
H          8.77800       -0.51800        6.20900
H          8.77600        1.26700        6.10300
H          9.58400        0.62400        8.17400
H         10.84900        0.71700       10.27400
H         13.32600        0.59500       10.25200
H         14.54700        0.42000        8.09800
H         13.29500        0.34300        5.96900
