23
605-94-7.pdb
C          1.03000       -0.50500       -0.34900
O          2.40800       -0.24200       -0.10400
C          3.12600       -1.22300        0.58200
C          4.18100       -0.83900        1.33000
O          4.45600        0.52700        1.43200
C          5.81800        0.90300        1.61800
C          4.99300       -1.85200        2.09000
O          5.91700       -1.53600        2.83100
C          4.64800       -3.28900        1.93600
C          3.61000       -3.64900        1.18100
C          2.77500       -2.67200        0.46200
O          1.84100       -3.10100       -0.20700
C          5.48700       -4.30600        2.65000
H          0.55000        0.44100       -0.61900
H          0.52600       -0.89300        0.54300
H          0.90800       -1.17700       -1.20400
H          5.89900        1.97700        1.42700
H          6.48200        0.38500        0.91800
H          6.13100        0.74900        2.65500
H          3.32200       -4.68700        1.05500
H          6.33000       -3.86500        3.18600
H          5.90000       -5.02500        1.93400
H          4.88000       -4.85100        3.38200
