29
60563-13-5.pdb
C          3.86300        0.04400        2.83500
C          3.13400       -0.04000        1.50700
O          3.40000       -1.33400        0.94400
C          4.53500       -1.40300        0.18800
O          5.11200       -0.44100       -0.29800
C          4.97800       -2.84700        0.07600
C          6.48400       -2.96700        0.04900
C          7.17000       -2.98500       -1.16400
C          8.56600       -3.00500       -1.17900
C          9.28700       -3.00100        0.01900
O         10.65400       -2.99900       -0.05600
C          8.62000       -2.98900        1.24800
O          9.15200       -2.97800        2.51000
C         10.56600       -2.96000        2.63800
C          7.21700       -2.97100        1.24700
H          3.69700        1.00700        3.32100
H          4.94000       -0.10300        2.69700
H          3.52300       -0.75700        3.50200
H          3.42700        0.77400        0.83400
H          2.05300        0.03800        1.66200
H          4.53000       -3.28700       -0.82100
H          4.59900       -3.41200        0.93800
H          6.62800       -2.95800       -2.10600
H          9.07200       -3.00900       -2.13900
H         10.91600       -2.90400       -0.98700
H         10.80000       -2.94700        3.70700
H         10.99400       -2.05000        2.20400
H         11.01500       -3.86700        2.22200
H          6.69900       -2.93900        2.20400
