18
606-18-8.pdb
N          2.38600        0.03200        0.29400
C          0.99500       -0.00700        0.03300
C          0.27600        1.21600        0.01700
C         -1.13400        1.19700       -0.02000
C         -1.84400        0.00000       -0.03300
C         -1.15300       -1.20400       -0.01600
C          0.25600       -1.21300        0.02900
N          0.92100       -2.53100        0.02600
O          2.15700       -2.59100       -0.07400
O          0.19700       -3.54000        0.08200
C          0.97900        2.56400       -0.02100
O          2.18800        2.57500       -0.42500
O          0.30100        3.58400        0.32600
H          2.75900        0.95700       -0.00400
H          2.90600       -0.74000       -0.11300
H         -1.67200        2.14500       -0.03700
H         -2.93100        0.01700       -0.05400
H         -1.72300       -2.13000       -0.02700
