28
6068-62-8.pdb
C          1.07500       -0.24100       -0.34600
O          2.47900       -0.14900       -0.13800
C          2.80700        0.17700        1.21400
O          2.24800       -0.74000        2.15300
C          2.78900       -2.05300        2.09900
C          4.30200        0.20500        1.31300
C          5.03000        1.06200        2.05500
C          6.52500        1.00700        2.16300
O          7.00900        2.02200        1.28600
C          8.41300        1.95000        1.10400
O          6.92500        1.29900        3.50100
C          6.55800        0.30400        4.44500
H          0.89100       -0.26700       -1.42300
H          0.54700        0.61900        0.07800
H          0.69100       -1.17000        0.08600
H          2.39800        1.17200        1.43800
H          2.06000       -2.74100        2.54000
H          3.70200       -2.10100        2.70000
H          2.99400       -2.37600        1.07300
H          4.82000       -0.53600        0.70600
H          4.53800        1.82500        2.64700
H          6.91900        0.03000        1.85500
H          8.72600        2.83800        0.54900
H          8.67900        1.06400        0.51900
H          8.94100        1.94100        2.06200
H          7.00400        0.57200        5.40700
H          6.93200       -0.68100        4.15000
H          5.47300        0.27500        4.57700
