19
607-32-9.pdb
O          1.05100        0.29500        0.13100
N          2.25600        0.01700        0.06500
O          2.85600       -0.35000       -0.95400
C          3.02100        0.10100        1.29700
C          2.59900       -0.71900        2.35500
C          3.29000       -0.68000        3.55900
C          4.38600        0.17000        3.69900
C          4.80900        0.99600        2.63800
C          5.90400        1.85300        2.77600
N          6.36400        2.67800        1.81100
C          5.70400        2.65800        0.63800
C          4.60400        1.85100        0.38900
C          4.12900        0.98300        1.40100
H          1.74200       -1.38200        2.24200
H          2.97700       -1.30800        4.39100
H          4.91400        0.19000        4.65200
H          6.46500        1.90300        3.70700
H          6.09100        3.32900       -0.12300
H          4.13600        1.90700       -0.59000
