25
607-57-8.pdb
O          1.48300        0.76900       -0.59200
N          2.38100        0.10000       -0.06200
O          2.69900        0.17300        1.13400
C          3.11700       -0.84900       -0.90800
C          2.78600       -0.95900       -2.27700
C          3.46600       -1.86600       -3.09900
C          4.46300       -2.64900       -2.53700
C          4.78800       -2.52900       -1.16700
C          5.89800       -3.49500       -0.80300
C          6.17100       -4.17200       -2.13000
C          7.10100       -5.15800       -2.40900
C          7.16800       -5.64300       -3.71600
C          6.31500       -5.14300       -4.71400
C          5.38000       -4.14400       -4.42400
C          5.31300       -3.66100       -3.12800
C          4.13000       -1.63400       -0.33800
H          1.99800       -0.34600       -2.71300
H          3.21000       -1.95100       -4.15100
H          5.54700       -4.22200       -0.06400
H          6.78200       -2.95700       -0.45000
H          7.76000       -5.54700       -1.63900
H          7.88900       -6.41900       -3.96800
H          6.38400       -5.53800       -5.72500
H          4.72700       -3.76500       -5.20300
H          4.39700       -1.55800        0.71200
