26
608-66-2.pdb
O          2.67100       -0.93700       -1.36200
C          2.27700       -0.23800       -0.18000
C          2.76800       -1.00600        1.05700
O          2.29300       -2.35500        0.96600
C          4.30300       -1.00300        1.19000
O          4.82300        0.33000        1.33900
C          4.87600       -1.88900        2.32700
O          6.31400       -1.81000        2.25400
C          4.44600       -1.50100        3.75900
O          3.02900       -1.54700        3.93100
C          5.11400       -2.40000        4.81700
O          4.64300       -2.09100        6.13100
H          2.40200       -0.38700       -2.11700
H          1.18300       -0.20300       -0.18200
H          2.66800        0.78400       -0.20900
H          2.31000       -0.52600        1.92600
H          2.38000       -2.58800        0.01800
H          4.73800       -1.38100        0.25500
H          4.39400        0.73300        2.11500
H          4.59800       -2.93100        2.13500
H          6.52100       -0.93800        1.86000
H          4.74300       -0.46800        3.96900
H          2.75700       -2.48500        3.93400
H          6.20100       -2.28000        4.81300
H          4.87600       -3.45300        4.63700
H          4.48600       -1.13200        6.17300
