22
608-68-4.pdb
C          1.25300        0.23600        2.27300
O          2.67700        0.24500        2.14700
C          3.13200        0.79200        0.98600
O          2.42800        1.25300        0.09800
C          4.66200        0.76600        0.93600
O          5.19600        1.26800       -0.29900
C          5.27600        1.51500        2.12200
O          6.70600        1.43700        2.05600
C          4.83100        2.97500        2.10200
O          5.39800        3.85300        1.46700
O          3.71200        3.14600        2.85700
C          3.27000        4.50300        2.94800
H          1.00000       -0.26800        3.20900
H          0.79700       -0.31300        1.44700
H          0.86700        1.26300        2.31900
H          4.97100       -0.28600        0.96900
H          4.71000        2.08500       -0.52500
H          4.98100        1.06900        3.07700
H          6.96300        1.89700        1.23100
H          2.47300        4.54700        3.69400
H          2.87100        4.83400        1.98600
H          4.08500        5.15800        3.27800
