19
608-05-9.pdb
C          3.85400        0.96700        0.04000
C          2.51100        0.29400        0.00400
C          2.41900       -1.11900       -0.03000
C          1.18000       -1.77300       -0.03800
C          0.04900       -0.98900       -0.01700
N         -1.27400       -1.42000       -0.00700
C         -2.14300       -0.34600        0.01000
O         -3.35400       -0.36500        0.03100
C         -1.23500        0.91700        0.00400
O         -1.58300        2.07400       -0.00500
C          0.13600        0.40100        0.00000
C          1.34300        1.07100        0.01400
H          4.66900        0.23600        0.01200
H          3.95800        1.54900        0.96100
H          3.96900        1.63000       -0.82300
H          3.32900       -1.71900       -0.04700
H          1.12700       -2.85600       -0.06000
H         -1.58800       -2.37900       -0.00300
H          1.37500        2.15600        0.03800
