17
6086-24-4.pdb
O          1.12200       -0.20300        0.10200
C          2.43700        0.09500        0.04100
O          3.00800        0.37600       -0.99800
C          3.12900        0.08900        1.35500
C          2.72000       -0.81400        2.39100
C          3.35100       -0.89700        3.64900
C          4.43100       -0.01800        3.75600
C          4.88300        0.89600        2.73400
C          4.23200        0.97100        1.49000
N          5.94500        1.58500        3.17400
O          6.21300        1.14300        4.46500
N          5.25100        0.13600        4.80000
O          5.33800       -0.37800        5.93800
H          0.72900       -0.22900        0.99200
H          1.90200       -1.51100        2.20400
H          3.04100       -1.58600        4.42600
H          4.55700        1.63700        0.69900
