22
609-09-6.pdb
C          5.99200        0.63600       -1.55900
C          4.53600        0.82500       -1.17200
O          4.49900        1.64500        0.00200
C          4.48800        0.97400        1.17400
O          4.29200       -0.21100        1.37100
C          4.94100        1.91800        2.25400
O          4.12700        2.59100        2.86900
C          6.43500        1.96800        2.53700
O          7.23500        1.36300        1.84400
O          6.69200        2.67900        3.65000
C          8.00500        2.50200        4.19700
C          7.94700        1.35900        5.19400
H          6.08500        0.04100       -2.47000
H          6.54600        0.14000       -0.75400
H          6.47200        1.60800       -1.71600
H          4.03500       -0.13800       -1.02200
H          4.00100        1.35700       -1.96400
H          8.28400        3.43200        4.70400
H          8.75700        2.31600        3.42100
H          7.21400        1.57900        5.97800
H          8.92100        1.18500        5.65600
H          7.61600        0.43500        4.70600
