20
609-99-4.pdb
O          1.26900        0.53700       -0.69100
C          2.30800        0.03400        0.00100
O          2.64900        0.48100        1.08500
C          3.02400       -1.11600       -0.63500
C          4.08100       -1.67900        0.10600
C          4.81000       -2.75900       -0.40800
C          4.50900       -3.28400       -1.67000
C          3.45800       -2.72100       -2.41400
C          2.70600       -1.64200       -1.90200
O          1.65900       -1.06400       -2.58300
N          3.16600       -3.28200       -3.74000
O          3.85800       -4.22600       -4.13800
O          2.23900       -2.76300       -4.38000
N          5.90000       -3.34900        0.38500
O          6.14100       -2.85200        1.49100
O          6.50500       -4.31000       -0.10800
H          1.11700        0.08800       -1.55200
H          4.32600       -1.26700        1.08700
H          5.08500       -4.12000       -2.06700
H          1.53700       -1.49400       -3.46300
