15
609-70-1.pdb
O          1.35400        0.27600        0.68800
C          2.40600       -0.18300       -0.02400
O          2.78800       -1.34200        0.05400
C          3.05100        0.82500       -0.88600
C          4.11600        0.48300       -1.63200
N          4.77800        1.36600       -2.45000
C          4.39400        2.67600       -2.54300
C          3.35000        3.17000       -1.86800
C          2.59400        2.23700       -0.98900
O          1.61100        2.62300       -0.35700
H          1.14000        1.22800        0.53000
H          4.53000       -0.52300       -1.62900
H          5.57800        1.03900       -2.98600
H          4.99900        3.29000       -3.20500
H          3.02700        4.20000       -1.92300
