15
609-71-2.pdb
O          1.42000        0.77200       -0.15800
C          2.48500       -0.04400        0.00300
O          2.83100       -0.44400        1.10600
C          3.18900       -0.40500       -1.24700
C          4.26700       -1.21000       -1.18100
C          4.99600       -1.59200       -2.37000
C          4.60600       -1.13700       -3.56600
N          3.51200       -0.31700       -3.66500
C          2.76000        0.08500       -2.58600
O          1.77800        0.81600       -2.70200
H          1.23700        1.02400       -1.09600
H          4.62700       -1.59700       -0.23000
H          5.85700       -2.24500       -2.26600
H          5.11900       -1.39100       -4.48800
H          3.21500        0.02500       -4.57200
