18
6093-68-1.pdb
O          1.00100       -0.03700        0.16800
C          2.36400        0.01000        0.14300
C          3.04500        1.22500        0.08100
C          4.43800        1.22700        0.03200
C          5.11900        0.01000        0.02500
O          6.52500        0.05600       -0.08200
C          7.27300       -1.10700       -0.21000
O          8.48700       -1.09300       -0.36400
C          6.53600       -2.38200       -0.14100
C          5.21100       -2.44000        0.01900
C          4.44400       -1.20800        0.08600
C          3.05100       -1.20300        0.16300
H          0.65500        0.86400        0.06000
H          2.51100        2.17000        0.06100
H          4.98700        2.16200       -0.02000
H          7.13900       -3.27900       -0.23100
H          4.68900       -3.39100        0.07200
H          2.48800       -2.13200        0.21100
