31
6094-36-6.pdb
O          1.04400       -0.32300       -0.06900
C          2.38900       -0.37400        0.07300
O          2.93600       -1.12800        0.85900
C          3.09700        0.59300       -0.84400
C          4.61600        0.53100       -0.67700
C          5.34100        1.53100       -1.58700
N          4.96700        2.93200       -1.37800
C          5.13500        3.58000       -0.17800
O          5.55000        3.00200        0.81900
C          4.84800        5.03200       -0.14200
C          4.40500        5.59300        1.06100
C          4.21000        6.97000        1.15700
C          4.46500        7.78900        0.05900
C          4.90700        7.23500       -1.14300
C          5.10200        5.85800       -1.24600
C          6.86800        1.34400       -1.53300
O          7.43800        1.63300       -0.34100
O          7.52400        0.96400       -2.49400
H          0.73600        0.32100       -0.72800
H          2.73200        1.60100       -0.61100
H          2.83000        0.34500       -1.87700
H          4.96600       -0.48400       -0.91100
H          4.87600        0.68900        0.37600
H          5.05300        1.31500       -2.62300
H          4.59800        3.43800       -2.17100
H          4.23000        4.96100        1.93000
H          3.87900        7.40600        2.09800
H          4.33500        8.86600        0.14400
H          5.12600        7.88100       -1.98900
H          5.49600        5.45400       -2.17500
H          6.79800        1.98900        0.32400
