23
6095-82-5.pdb
C          2.16000        1.88300        0.03300
C          1.04300        0.88200        0.00900
C          1.31600       -0.48500        0.01200
C          0.28800       -1.45500        0.02500
C          0.75200       -2.88700        0.02600
C         -1.07100       -1.04700        0.03800
N         -2.20500       -1.88800       -0.04200
C         -2.24200       -2.92400        0.51800
S         -2.45900       -4.36300        1.16300
C         -1.33900        0.35000        0.01400
C         -2.74300        0.90200        0.00500
C         -0.28600        1.29100        0.00900
H          3.13700        1.39200       -0.04700
H          2.14500        2.44200        0.97400
H          2.07100        2.57900       -0.80700
H          2.35600       -0.80700        0.00900
H          1.84600       -2.95600        0.02300
H          0.39600       -3.41700       -0.86300
H          0.42800       -3.38700        0.94100
H         -3.51600        0.12900       -0.00900
H         -2.89600        1.52900       -0.88000
H         -2.90400        1.50700        0.90400
H         -0.52000        2.35500        0.01100
