32
60984-57-8.pdb
C          2.95900       -1.43200       -1.95200
C          3.41000       -0.71600       -0.91300
C          4.22600       -1.36900        0.14200
O          4.54800       -2.54700        0.09600
N          4.56600       -0.51800        1.16400
C          5.33800       -0.98200        2.30500
C          6.84400       -0.90300        2.05400
S          7.75200       -1.37100        3.56800
S          9.71400       -1.28000        2.94700
C          9.95700        0.51700        2.79400
C         11.38900        0.84900        2.37300
N         11.58600        2.27400        2.14400
C         10.95800        2.92200        1.10800
O         10.16700        2.38400        0.34100
C         11.31300        4.35700        1.00800
C         10.71600        5.13000        0.09200
H          2.35600       -0.97500       -2.72900
H          3.17900       -2.49200       -2.04600
H          3.18100        0.33800       -0.82600
H          4.30700        0.45800        1.12100
H          5.04200       -2.01300        2.53300
H          5.04800       -0.34800        3.14900
H          7.10600        0.12700        1.78900
H          7.13300       -1.55500        1.22400
H          9.72600        1.00500        3.74700
H          9.25000        0.88400        2.04800
H         11.65900        0.32900        1.44700
H         12.09800        0.55300        3.15500
H         12.27300        2.76000        2.70500
H         12.05500        4.76400        1.68200
H          9.96700        4.72800       -0.58800
H         10.96100        6.18200       -0.00000
