21
6099-90-7.pdb
O          0.12300        0.35100       -3.36200
O          1.31700        0.02700        3.17800
O         -2.53200        0.31100        0.21600
C         -1.17900        0.20300        0.09000
C         -0.36400        1.32800       -0.00100
C          1.01100        1.14800       -0.14400
O          1.86200        2.20900       -0.22800
C          1.57200       -0.12700       -0.20100
C          0.73700       -1.23400       -0.10000
O          1.23100       -2.50300       -0.13400
C         -0.63700       -1.07900        0.04700
H          0.98400        0.50000       -2.94200
H         -0.34600       -0.20100       -2.71300
H          1.63400        0.63800        2.49500
H          0.79400       -0.62000        2.67600
H         -2.79100        1.24600        0.17400
H         -0.79200        2.32400        0.03600
H          1.35300        3.03800       -0.19000
H          2.64600       -0.23500       -0.31200
H          2.19900       -2.47300       -0.22200
H         -1.28300       -1.94900        0.12600
