24
61-78-9.pdb
N          2.32500       -0.03100       -0.17700
C          0.94000       -0.00900        0.00600
C          0.24400        1.20100       -0.01700
C         -1.15800        1.23000        0.02300
C         -1.87900        0.03200        0.04700
C         -1.18600       -1.18200        0.00100
C          0.21100       -1.20000       -0.03300
C         -3.36700       -0.01600        0.07800
O         -3.97700       -1.00200       -0.31800
N         -4.02500        1.03800        0.67100
C         -5.48500        1.15600        0.66100
C         -6.18800        0.54300        1.87300
O         -5.51300       -0.48000        2.44700
O         -7.29700        0.88600        2.25400
H          2.80700        0.80000        0.14800
H          2.77600       -0.88400        0.13600
H          0.79000        2.14000       -0.07700
H         -1.65800        2.19300       -0.01300
H         -1.72900       -2.12600       -0.02300
H          0.72500       -2.15600       -0.09700
H         -3.50100        1.77400        1.12700
H         -5.88300        0.67400       -0.23800
H         -5.71000        2.22500        0.63800
H         -4.74300       -0.73900        1.89900
