23
610-16-2.pdb
C          0.97000        0.13100        0.14600
N          2.30700       -0.45100       -0.05500
C          3.12400       -0.46000        1.18600
C          3.05400        0.02900       -1.16900
C          2.77500        1.26200       -1.78900
C          3.52800        1.73200       -2.87400
C          4.59700        0.98900       -3.35900
C          4.89300       -0.24000       -2.78100
C          4.11600       -0.73400       -1.71800
C          4.42000       -2.12700       -1.28800
O          3.33900       -2.80200       -0.83600
O          5.52100       -2.63400       -1.40300
H          0.46800       -0.37600        0.97700
H          0.34800       -0.01500       -0.74100
H          1.01900        1.19800        0.39900
H          2.48600       -0.63600        2.05900
H          3.64600        0.49100        1.33600
H          3.85800       -1.27100        1.17900
H          1.96500        1.89900       -1.44600
H          3.27700        2.68400       -3.33600
H          5.18600        1.35500       -4.19700
H          5.71400       -0.83500       -3.17900
H          2.58700       -2.18000       -0.68200
