18
610-37-7.pdb
O          2.18300        0.07300       -0.00600
C          0.82100        0.03400       -0.01400
C          0.13400       -1.17400       -0.00400
C         -1.26000       -1.15900       -0.00400
C         -1.94300        0.07000       -0.01900
C         -1.26400        1.29300       -0.03800
C          0.14200        1.25200       -0.02500
C         -1.86800        2.64900        0.04100
O         -3.00600        2.87100       -0.64000
O         -1.30600        3.54300        0.65300
N         -3.38600        0.00700       -0.02300
O         -3.93600       -0.60900        0.89500
O         -3.95600        0.54200       -0.98600
H          2.53700       -0.83100        0.02200
H          0.66100       -2.12300        0.01100
H         -1.80600       -2.10200        0.01300
H          0.71900        2.17800       -0.00700
H         -3.41700        2.14300       -1.15500
