18
610-66-2.pdb
O          1.12600       -0.04600        0.05900
N          2.36200       -0.05200        0.10400
O          3.05900       -0.87700        0.70700
C          3.06200        1.02400       -0.58800
C          2.66200        2.33500       -0.28500
C          3.34600        3.40800       -0.85200
C          4.41400        3.17100       -1.71500
C          4.79500        1.86100       -2.03100
C          4.12400        0.75500       -1.47800
C          4.57200       -0.64100       -1.86500
C          3.56000       -1.39600       -2.62300
N          2.76700       -1.98800       -3.22600
H          1.83500        2.52500        0.39600
H          3.05200        4.42800       -0.61600
H          4.95400        4.01100       -2.14800
H          5.63100        1.72000       -2.71600
H          4.88900       -1.19000       -0.97200
H          5.47500       -0.57200       -2.48700
