26
610-22-0.pdb
C          1.22500        0.24700        0.56400
O          2.63100        0.08200        0.36700
C          3.12200       -1.10600        0.80200
O          2.48300       -2.01500        1.30300
C          4.60200       -1.10900        0.68500
C          5.30300        0.09000        0.92100
C          6.69900        0.09800        0.98600
C          7.40400       -1.10000        0.82300
C          6.72600       -2.29500        0.55700
C          5.32100       -2.30000        0.48400
C          4.63600       -3.55200        0.09500
O          3.75900       -3.60800       -0.74900
O          5.19800       -4.58500        0.76700
C          4.65000       -5.86900        0.46300
N          8.86900       -1.09900        0.92900
O          9.42900       -0.01500        1.14300
O          9.45400       -2.18400        0.80700
H          0.98900        1.30800        0.44200
H          0.92400       -0.05200        1.57300
H          0.67600       -0.32400       -0.19000
H          4.76500        1.02300        1.08500
H          7.21300        1.03800        1.17900
H          7.27600       -3.22200        0.39800
H          5.38800       -6.62800        0.74200
H          4.43400       -5.98600       -0.60500
H          3.74600       -6.02700        1.05700
