22
610-09-3.pdb
O          5.64100       -0.58900        1.66200
C          4.76200       -0.61100        0.75700
O          4.92400       -0.90300       -0.47100
C          3.28500       -0.42400        1.18600
C          2.74500       -1.84700        1.43400
C          3.21800       -2.43100        2.76500
C          2.86900       -1.51700        3.93300
C          3.36000       -0.08500        3.72600
C          2.91500        0.48900        2.37500
C          3.26900        1.98200        2.16500
O          3.84400        2.57500        3.12500
O          2.78100        2.50500        1.11600
H          2.77100       -0.03100        0.29600
H          3.02900       -2.52600        0.62100
H          1.64800       -1.81300        1.43600
H          4.30100       -2.59900        2.74000
H          2.75800       -3.41300        2.91800
H          3.29600       -1.92100        4.85800
H          1.77900       -1.50700        4.06800
H          4.45000       -0.05200        3.81900
H          2.96900        0.53600        4.54000
H          1.81300        0.50600        2.41200
