19
610-30-0.pdb
O          1.02100       -0.27800       -0.27000
C          2.32500        0.02300       -0.12700
O          2.85100        0.97900       -0.66500
C          3.10400       -0.93600        0.69300
C          2.80300       -2.30900        0.66500
C          3.62600       -3.23000        1.32800
C          4.77800       -2.78900        1.99900
C          5.09300       -1.42700        2.04700
C          4.24200       -0.52000        1.39900
N          4.53600        0.89100        1.55700
O          3.72200        1.54800        2.21900
O          5.62600        1.28700        1.12600
N          5.66800       -3.76800        2.64400
O          5.32500       -4.95800        2.61100
O          6.69700       -3.34000        3.17800
H          0.65200       -0.97500        0.30200
H          1.96000       -2.69300        0.09300
H          3.37300       -4.29000        1.28700
H          5.97600       -1.06900        2.57400
