17
610-81-1.pdb
N         -2.86800       -0.07100        0.21400
C         -1.48100        0.02400        0.01000
C         -0.75000       -1.17700        0.03100
C          0.64700       -1.18400       -0.00100
C          1.33600        0.02100       -0.01800
O          2.69700        0.06100       -0.03700
C          0.65400        1.22900       -0.00500
C         -0.75200        1.23400        0.02500
N         -1.43100        2.54100        0.01900
O         -2.66700        2.56400       -0.08900
O         -0.72600        3.55800        0.09200
H         -3.30800       -0.89900       -0.17400
H         -3.38100        0.78500       -0.02200
H         -1.27500       -2.12900        0.08600
H          1.17200       -2.13500        0.00800
H          3.04400       -0.84600       -0.02300
H          1.22800        2.15400       -0.01100
