19
610-35-5.pdb
O          1.88400        0.11000       -1.14500
C          2.39500       -0.23700        0.04900
O          2.17000       -1.32900        0.55800
C          3.11900        0.81300        0.82000
C          2.83400        0.82200        2.20200
C          3.48700        1.69700        3.07300
C          4.44100        2.56400        2.56700
O          5.11500        3.43200        3.37200
C          4.74000        2.58500        1.20800
C          4.08900        1.70300        0.32600
C          4.39700        1.81500       -1.11300
O          5.68900        2.03300       -1.41300
O          3.51600        1.74100       -1.95500
H          2.25200        0.91400       -1.57300
H          2.09000        0.13500        2.60800
H          3.23600        1.68000        4.13000
H          4.81300        3.31600        4.29000
H          5.46100        3.31800        0.85200
H          6.32600        2.00700       -0.67400
