25
61040-81-1.pdb
C          3.26100        1.12000        0.26100
O          2.43200        0.08500       -0.26500
C          3.06200       -1.13500       -0.41000
C          4.09600       -1.52800        0.44700
C          4.76200       -2.73700        0.26200
C          4.32000       -3.56700       -0.77500
C          3.24300       -3.22700       -1.62200
O          3.01500       -4.24500       -2.50500
C          2.00300       -4.19000       -3.48200
C          2.60200       -1.98300       -1.45500
C          1.41900       -1.49500       -2.24600
C          5.92300       -3.12500        1.15200
O          6.25700       -2.29400        2.05700
O          6.48300       -4.24200        0.92700
H          2.82300        2.08000       -0.02900
H          4.27700        1.08800       -0.15000
H          3.27800        1.07600        1.35500
H          4.41200       -0.90500        1.28000
H          4.83000       -4.52100       -0.91900
H          1.99400       -5.15600       -3.99900
H          2.23100       -3.43700       -4.24100
H          1.01400       -4.05800       -3.03500
H          1.40900       -1.83700       -3.27700
H          1.42100       -0.40300       -2.34100
H          0.48900       -1.79500       -1.75100
