18
611-09-6.pdb
O          2.76900        0.71100        0.81000
N          2.37300       -0.07000       -0.06500
O          1.38800        0.12200       -0.79100
C          3.13000       -1.31500       -0.26000
C          4.26400       -1.57300        0.55300
C          5.01600       -2.74400        0.38300
C          4.61100       -3.62200       -0.60100
N          5.21300       -4.82600       -0.95200
C          4.53700       -5.43300       -1.99400
O          4.79900       -6.47800       -2.54600
C          3.35100       -4.48300       -2.32000
O          2.49300       -4.62900       -3.15700
C          3.49100       -3.36100       -1.38900
C          2.72300       -2.22100       -1.25000
H          4.56900       -0.86200        1.32200
H          5.88600       -2.93900        1.00300
H          6.04200       -5.22600       -0.53600
H          1.86000       -2.05300       -1.88800
