28
611-94-9.pdb
C          1.33400       -0.59400       -0.29300
O          2.50500        0.18500       -0.08400
C          3.12600        0.05200        1.12800
C          2.70800       -0.77500        2.17200
C          3.43300       -0.81900        3.36800
C          4.56500       -0.01400        3.53900
C          5.00100        0.79100        2.48300
C          4.27900        0.82600        1.28700
C          5.34300       -0.01300        4.80600
O          6.56200        0.13800        4.75700
C          4.68200       -0.19000        6.12700
C          3.37400        0.25100        6.36900
C          2.79000        0.05500        7.62200
C          3.51600       -0.55800        8.64300
C          4.82900       -0.96900        8.41700
C          5.41300       -0.78300        7.16300
H          0.97100       -0.39100       -1.30500
H          0.54200       -0.31000        0.40900
H          1.55500       -1.66500       -0.22700
H          1.82700       -1.40200        2.08800
H          3.10100       -1.49400        4.15400
H          5.89900        1.39600        2.58900
H          4.61900        1.46100        0.47200
H          2.79900        0.76000        5.60000
H          1.77100        0.38800        7.80500
H          3.06200       -0.70400        9.62000
H          5.40100       -1.43100        9.21800
H          6.44100       -1.10100        6.99400
