27
611-95-0.pdb
O          3.12700       -1.19800       -0.17300
C          2.36500       -0.08700       -0.11700
O          1.15700       -0.10900        0.04400
C          3.13600        1.17600       -0.22500
C          2.68200        2.29300        0.48800
C          3.36700        3.51000        0.40300
C          4.49400        3.61900       -0.42000
C          4.95200        2.49800       -1.12600
C          4.26800        1.28200       -1.04200
C          5.26300        4.88400       -0.54600
O          6.48300        4.81400       -0.67700
C          4.60700        6.21800       -0.52700
C          3.30000        6.41400       -0.98900
C          2.73100        7.69000       -0.95300
C          3.47100        8.77300       -0.47800
C          4.78300        8.58800       -0.04600
C          5.35300        7.31400       -0.07400
H          4.08900       -1.04500       -0.11800
H          1.79300        2.21700        1.11400
H          3.01200        4.35500        0.98900
H          5.83800        2.57700       -1.75400
H          4.61600        0.44500       -1.64100
H          2.71400        5.59500       -1.39500
H          1.71400        7.84200       -1.30400
H          3.02800        9.76600       -0.45600
H          5.36600        9.43500        0.30700
H          6.38100        7.17800        0.25500
