25
611-69-8.pdb
C          0.88900        0.18700       -0.07700
C          2.42000        0.06000       -0.06300
C          2.93200        0.00800       -1.50400
C          3.05000        1.21900        0.74600
O          2.48800        1.21000        2.06300
C          4.56500        1.18600        0.85600
C          5.31800        2.28900        0.42200
C          6.70700        2.30800        0.56500
C          7.36200        1.22800        1.15300
C          6.63200        0.12200        1.57900
C          5.24300        0.09500        1.42500
H          0.43600       -0.64400       -0.62900
H          0.57500        1.12100       -0.55500
H          0.47500        0.17000        0.93600
H          2.65600       -0.89400        0.42600
H          2.68300        0.92700       -2.04600
H          2.47800       -0.83200       -2.04100
H          4.01700       -0.12900       -1.54300
H          2.74100        2.16800        0.29200
H          3.13400        0.81200        2.66900
H          4.82400        3.14800       -0.02900
H          7.27400        3.17200        0.23100
H          8.44100        1.25400        1.28400
H          7.14400       -0.72100        2.03900
H          4.69400       -0.77800        1.77100
