23
611-10-9.pdb
C          2.20500       -0.77100        1.67700
C          3.56600       -0.92300        1.02100
O          4.40900        0.13400        1.50100
C          4.37200        1.29000        0.77900
O          3.94100        1.40500       -0.36000
C          4.93000        2.41100        1.60900
C          6.40200        2.68900        1.31900
C          6.41100        3.81800        0.29500
C          5.21800        4.69700        0.63700
C          4.27600        3.72500        1.29600
O          3.11600        3.99700        1.58000
H          1.51900       -1.55900        1.35500
H          1.76400        0.20300        1.43800
H          2.30300       -0.81100        2.76700
H          3.48700       -0.92700       -0.07200
H          4.02200       -1.87200        1.32100
H          4.77900        2.19700        2.67200
H          6.94400        1.81100        0.95200
H          6.89800        3.02500        2.23800
H          6.30100        3.40900       -0.71600
H          7.34900        4.38400        0.32200
H          4.76900        5.13700       -0.25600
H          5.48400        5.47200        1.36200
