28
611-79-0.pdb
N          2.16300        0.02800       -1.02700
C          0.89200        0.00600       -0.44000
C          0.27400        1.20000       -0.06000
C         -1.03100        1.20300        0.43600
C         -1.75200        0.01300        0.50700
C         -1.18400       -1.17500        0.03200
C          0.13600       -1.17000       -0.44200
C         -1.92900       -2.46500        0.03800
O         -1.30500       -3.52100        0.11800
C         -3.41100       -2.51300       -0.03100
C         -4.14100       -1.61100       -0.81000
C         -5.53400       -1.64100       -0.77700
C         -6.19300       -2.60200       -0.00600
C         -5.47400       -3.57900        0.68900
N         -6.14100       -4.46900        1.54000
C         -4.08000       -3.49900        0.70800
H          2.74800        0.79400       -0.70600
H          2.64600       -0.86500       -0.97800
H          0.81200        2.14100       -0.13500
H         -1.48500        2.13600        0.76100
H         -2.75300        0.03400        0.92700
H          0.57400       -2.09600       -0.80800
H         -3.64200       -0.87000       -1.43000
H         -6.10900       -0.91000       -1.34000
H         -7.27900       -2.58800        0.03900
H         -7.09100       -4.68100        1.24800
H         -5.61000       -5.31200        1.74100
H         -3.50200       -4.20100        1.30600
