30
611-97-2.pdb
C          2.46400       -0.22400        0.39200
C          0.97400       -0.12000        0.25800
C          0.38200        0.02800       -1.00100
C         -1.00800        0.07200       -1.12600
C         -1.82400       -0.00200        0.01000
C         -1.23500       -0.14500        1.27100
C          0.15700       -0.20200        1.39200
C         -3.31300        0.00800       -0.08900
O         -3.97900       -0.56000        0.77500
C         -4.00500        0.67000       -1.22500
C         -3.52800        1.85900       -1.78600
C         -4.17600        2.42700       -2.88400
C         -5.32600        1.82800       -3.41400
C         -6.02400        2.43000       -4.59700
C         -5.82400        0.66000       -2.82400
C         -5.17000        0.08400       -1.73100
H          2.96000       -0.14400       -0.58100
H          2.73300       -1.19400        0.82400
H          2.84600        0.57700        1.03200
H          0.99600        0.09000       -1.89600
H         -1.43200        0.14300       -2.12400
H         -1.85700       -0.22500        2.15900
H          0.59900       -0.32600        2.37900
H         -2.64900        2.35600       -1.38300
H         -3.77800        3.33900       -3.32200
H         -5.52700        3.34600       -4.93300
H         -7.05600        2.68600       -4.33700
H         -6.02500        1.72400       -5.43300
H         -6.72200        0.18700       -3.21500
H         -5.56400       -0.82600       -1.28300
