23
611-70-1.pdb
C          2.55000       -0.99500       -1.28500
C          2.54300       -0.05600       -0.08200
C          1.13700        0.50600        0.14400
C          3.03400       -0.80300        1.15900
O          2.24600       -1.34300        1.93600
C          4.50300       -0.91400        1.43400
C          5.48300       -0.38800        0.58400
C          6.84000       -0.52000        0.89900
C          7.22800       -1.18000        2.06300
C          6.26200       -1.71200        2.91400
C          4.90800       -1.58100        2.60300
H          2.21600       -0.47300       -2.18800
H          1.88800       -1.85300       -1.12300
H          3.55300       -1.38900       -1.48100
H          3.19300        0.80300       -0.27700
H          0.44000       -0.25900        0.50400
H          0.72800        0.92300       -0.78300
H          1.16300        1.30800        0.88900
H          5.22800        0.12600       -0.33700
H          7.59500       -0.10900        0.23400
H          8.28200       -1.28500        2.30600
H          6.56100       -2.23200        3.82200
H          4.16600       -2.00300        3.27900
