19
611-34-7.pdb
N          0.99800        0.17600       -0.16400
C          2.40100        0.12900       -0.01900
C          3.10600        1.33700       -0.07200
C          4.49500        1.34900       -0.03700
C          5.19400        0.14400        0.00300
C          4.54000       -1.07800       -0.01500
N          5.29200       -2.19500       -0.02100
C          4.66300       -3.38600       -0.07400
C          3.29200       -3.52700       -0.11500
C          2.51900       -2.37100       -0.09900
C          3.12500       -1.09800       -0.04500
H          0.59100        1.05600        0.13800
H          0.51800       -0.61500        0.24900
H          2.57300        2.28200       -0.13600
H          5.03600        2.29100       -0.05500
H          6.28100        0.15700        0.02400
H          5.31700       -4.25300       -0.08900
H          2.83400       -4.50800       -0.16300
H          1.44000       -2.47400       -0.14200
