14
6117-80-2.pdb
O          2.78700       -0.21400       -1.41900
C          2.39700        0.04800       -0.08200
C          3.03800       -0.96100        0.81400
C          4.35700       -1.15200        0.98200
C          5.45800       -0.40900        0.29500
O          6.25100        0.21700        1.29300
H          2.39300        0.48300       -1.96800
H          1.30700       -0.02700       -0.01500
H          2.69400        1.06300        0.19700
H          2.35400       -1.59300        1.37600
H          4.68500       -1.93500        1.66300
H          5.10500        0.36300       -0.39300
H          6.08900       -1.10500       -0.26400
H          5.65700        0.80700        1.78600
