28
612-94-2.pdb
C          1.38000        0.06000       -0.15000
C          0.56400       -1.03700        0.07200
C         -0.82000       -0.87700        0.03800
C         -1.43900        0.37900       -0.16700
C         -0.58800        1.46600       -0.41300
C          0.80600        1.30500       -0.40700
C         -2.92200        0.48300       -0.09900
C         -3.61700       -0.44800        0.69400
C         -4.99900       -0.57100        0.64500
C         -5.75400        0.34700       -0.05600
C         -7.14500        0.20500       -0.08300
C         -7.94200        1.28200       -0.43800
C         -7.34400        2.44500       -0.91500
C         -5.95700        2.49700       -1.10700
C         -5.12200        1.45600       -0.66100
C         -3.70400        1.46100       -0.74500
H          2.45900       -0.05600       -0.12600
H          0.98800       -2.01600        0.27400
H         -1.42300       -1.77200        0.18000
H         -0.99000        2.45900       -0.59700
H          1.45000        2.15800       -0.59900
H         -3.08300       -1.11200        1.37000
H         -5.47200       -1.35000        1.23700
H         -7.60900       -0.72900        0.22800
H         -9.01900        1.21900       -0.30900
H         -7.96200        3.31300       -1.12900
H         -5.52600        3.39800       -1.54700
H         -3.22100        2.24400       -1.33200
