20
612-60-2.pdb
C          0.87100        0.09900        0.11400
C          2.36900        0.03300        0.08000
C          3.03900       -1.19100        0.09800
C          4.43200       -1.22400        0.04000
C          5.16900       -0.03100       -0.04100
C          6.56800       -0.03400       -0.12600
C          7.25600        1.16900       -0.21600
C          6.52000        2.33900       -0.20600
N          5.17300        2.38200       -0.12100
C          4.50800        1.21400       -0.04400
C          3.12000        1.21900        0.02200
H          0.42600       -0.90100        0.11400
H          0.50000        0.63000       -0.76900
H          0.53500        0.62000        1.01600
H          2.48500       -2.12500        0.15000
H          4.93800       -2.18600        0.04900
H          7.12200       -0.96800       -0.13200
H          8.33800        1.19400       -0.29200
H          7.00800        3.30700       -0.27200
H          2.61000        2.18000        0.01600
