23
612-05-5.pdb
C          0.87200        0.12000        0.37400
O          2.14000       -0.08400       -0.23200
C          2.89400       -1.15900        0.33500
O          4.20300       -1.16900       -0.27200
C          4.13100       -1.33500       -1.69800
C          3.48800       -2.67700       -2.05300
O          4.33800       -3.76400       -1.63400
C          2.13600       -2.84800       -1.35000
O          1.65600       -4.19500       -1.51100
C          2.26800       -2.55900        0.14700
O          1.00100       -2.71500        0.79600
H          0.54600        1.13600        0.13700
H          0.91600        0.01300        1.46100
H          0.13700       -0.56600       -0.05700
H          3.03700       -0.95600        1.40300
H          5.16100       -1.30500       -2.06700
H          3.59100       -0.49600       -2.14900
H          3.36900       -2.78000       -3.13700
H          4.94700       -3.41200       -0.95600
H          1.38100       -2.19100       -1.79700
H          2.46200       -4.75000       -1.57700
H          2.92900       -3.30800        0.60100
H          0.59900       -3.50500        0.38000
