18
612-25-9.pdb
O          1.13700        0.11700        0.02400
C          2.55100        0.00100        0.00100
C          2.92500       -1.05100        1.00500
C          3.23700       -0.66300        2.31800
C          3.48500       -1.61700        3.31200
C          3.41300       -2.97800        3.01900
C          3.10900       -3.39300        1.72500
C          2.87400       -2.42900        0.73300
N          2.59500       -2.91300       -0.60900
O          3.37800       -2.57300       -1.50600
O          1.62900       -3.67500       -0.74900
H          0.89500        0.80000       -0.62400
H          2.99100        0.96900        0.26600
H          2.87900       -0.23400       -1.01300
H          3.26500        0.39200        2.58500
H          3.71500       -1.29200        4.32500
H          3.58900       -3.71200        3.80100
H          3.04900       -4.45500        1.49800
