20
612-58-8.pdb
C         -3.55200       -0.74000       -0.09000
C         -2.14300       -0.24500       -0.02300
C         -1.84400        1.10800       -0.01700
N         -0.58900        1.61200        0.00200
C          0.43800        0.74400        0.00500
C          1.74000        1.22800       -0.01500
C          2.84300        0.36800       -0.03300
C          2.64800       -1.00800       -0.01800
C          1.35300       -1.52000        0.01200
C          0.24600       -0.65200        0.01500
C         -1.07000       -1.13600        0.01000
H         -4.26800        0.08800       -0.12100
H         -3.78400       -1.35500        0.78500
H         -3.69500       -1.33800       -0.99700
H         -2.62900        1.86100       -0.03600
H          1.89900        2.30300       -0.02700
H          3.84900        0.77900       -0.06300
H          3.50200       -1.68100       -0.03500
H          1.20900       -2.59800        0.02200
H         -1.25900       -2.20700        0.01400
