22
6120-95-2.pdb
O          1.19200        0.65700       -0.02000
C          2.06200       -0.34100        0.26700
O          2.08800       -0.92600        1.33900
C          2.98300       -0.68700       -0.86800
C          2.38000       -1.11500       -2.20700
C          2.98000       -2.15100       -1.31500
C          4.31900        0.04900       -0.91200
C          5.43500       -0.43200       -0.20500
C          6.68800        0.17300       -0.32200
C          6.84900        1.28800       -1.13900
C          5.75200        1.81400       -1.81500
C          4.50100        1.20300       -1.69700
H          1.34300        1.01500       -0.91300
H          2.91800       -0.88500       -3.12300
H          1.30300       -1.12000       -2.32600
H          3.92000       -2.60400       -1.61100
H          2.31000       -2.83900       -0.81000
H          5.32800       -1.30700        0.43400
H          7.53900       -0.23700        0.21500
H          7.82800        1.74700       -1.24700
H          5.87300        2.69000       -2.44700
H          3.66400        1.62300       -2.25000
