32
61203-83-6.pdb
C          0.81500        0.00800        0.10900
C          2.33300       -0.03900        0.07100
C          2.87900        0.86900       -1.02600
C          4.40600        0.82500       -1.07900
C          4.92700        1.72200       -2.20300
C          6.46300        1.72000       -2.33900
C          6.91300        2.67100       -3.46300
C          6.49300        2.18800       -4.84700
C          6.91200        0.75000       -5.07400
O          7.32300        0.37600       -6.17100
C          6.64500       -0.23700       -3.95900
C          7.06400        0.33100       -2.60900
H          0.43400       -0.64100        0.90200
H          0.39100       -0.32900       -0.84300
H          0.46100        1.02600        0.30000
H          2.65900       -1.07200       -0.10100
H          2.73200        0.27000        1.04500
H          2.54600        1.90000       -0.85600
H          2.47200        0.55400       -1.99500
H          4.71600       -0.21200       -1.24200
H          4.82700        1.14800       -0.12000
H          4.59400        2.75100       -2.01700
H          4.45400        1.41300       -3.14100
H          6.88300        2.09300       -1.39500
H          8.00900        2.75200       -3.43600
H          6.52100        3.68000       -3.28900
H          6.96200        2.81800       -5.61100
H          5.40900        2.25700       -4.98300
H          7.21200       -1.15200       -4.15800
H          5.58100       -0.49400       -3.97000
H          8.15800        0.41500       -2.58500
H          6.80300       -0.37300       -1.81200
