32
613-62-7.pdb
C          1.04400        1.52700       -1.24300
O          0.37400        1.19800       -0.02200
C         -0.94600        1.55800        0.02000
C         -1.75400        0.82200        0.88300
C         -3.12300        1.08700        0.96200
C         -3.70000        2.10400        0.18400
C         -5.07400        2.38700        0.22600
C         -5.61800        3.40500       -0.56200
C         -4.79800        4.15300       -1.40000
C         -3.43200        3.88700       -1.45300
C         -2.87300        2.86800       -0.67000
C         -1.50200        2.59600       -0.73000
C          2.29500        0.70200       -1.42100
C          2.41600       -0.57400       -0.85500
C          3.55000       -1.34900       -1.09300
C          4.56800       -0.86300       -1.91000
C          4.45600        0.39900       -2.48900
C          3.32200        1.17800       -2.25000
H          1.31400        2.59000       -1.21700
H          0.40200        1.32200       -2.11100
H         -1.32000        0.02600        1.48300
H         -3.73700        0.48800        1.63000
H         -5.73400        1.81200        0.87200
H         -6.68400        3.61400       -0.52000
H         -5.22000        4.94400       -2.01500
H         -2.80600        4.47700       -2.11800
H         -0.88000        3.20800       -1.37400
H          1.62200       -0.97300       -0.22700
H          3.63300       -2.33500       -0.64500
H          5.44800       -1.47000       -2.10000
H          5.24500        0.77500       -3.13400
H          3.24300        2.15500       -2.72000
