19
613-93-4.pdb
C          1.03200        0.01800       -0.10700
N          2.46800        0.11900       -0.10200
C          3.11600        0.74900        0.93900
O          2.53200        1.24600        1.89400
C          4.60100        0.79400        0.87000
C          5.28200        0.81600       -0.35300
C          6.67400        0.92600       -0.37200
C          7.38500        1.01200        0.82500
C          6.71100        0.98600        2.04500
C          5.32000        0.88100        2.06900
H          0.72300       -0.59600       -0.95500
H          0.60700        1.02000       -0.19600
H          0.69300       -0.43700        0.82900
H          2.99700       -0.41300       -0.77700
H          4.74300        0.79300       -1.29500
H          7.20300        0.96600       -1.32100
H          8.46700        1.11400        0.80800
H          7.26400        1.06200        2.97800
H          4.79300        0.87900        3.02200
