38
613-29-6.pdb
C          3.86200        0.86200       -3.70800
C          4.64000        1.29400       -2.46900
C          3.77300        1.10500       -1.22800
C          4.45600        1.39300        0.11100
N          4.93700        2.77200        0.30000
C          4.02600        3.92800        0.30300
C          2.54300        3.71500        0.61100
C          2.19000        3.29000        2.03500
C          0.67300        3.21700        2.18600
C          6.31900        3.04200        0.24700
C          6.82200        4.30000       -0.15100
C          8.19500        4.59000       -0.19700
C          9.12200        3.62100        0.15800
C          8.67000        2.37500        0.56900
C          7.29500        2.09900        0.61800
H          4.45400        1.01600       -4.61400
H          2.93400        1.43600       -3.80600
H          3.59500       -0.20000       -3.65100
H          4.93000        2.34400       -2.57600
H          5.55700        0.70000       -2.39100
H          3.43900        0.05900       -1.19700
H          2.86600        1.69900       -1.34700
H          5.24500        0.64600        0.22500
H          3.75100        1.15500        0.91100
H          4.06900        4.39400       -0.68900
H          4.39200        4.66600        1.03000
H          2.08200        3.02900       -0.09900
H          2.05200        4.68200        0.43100
H          2.59200        4.00700        2.75900
H          2.61400        2.31300        2.27500
H          0.21900        4.20300        2.03700
H          0.39900        2.86400        3.18400
H          0.23800        2.53100        1.45100
H          6.15400        5.10000       -0.45200
H          8.52900        5.57500       -0.51100
H         10.18600        3.83900        0.12500
H          9.38200        1.61000        0.86600
H          7.01200        1.12200        1.00000
