21
613-21-8.pdb
C          0.89900       -0.05300       -0.01900
C          2.39500        0.03500       -0.04300
C          3.03800        1.26500       -0.02400
C          4.42800        1.29000       -0.05200
C          5.14700        0.09000       -0.09800
C          6.55300        0.06900       -0.13600
C          7.22100       -1.14900       -0.18500
O          8.58100       -1.21600       -0.22600
C          6.51300       -2.34000       -0.19400
C          5.11600       -2.31200       -0.15400
C          4.41300       -1.11500       -0.10800
N          3.06900       -1.14000       -0.07900
H          0.43300        0.93600       -0.06100
H          0.57100       -0.54900        0.90000
H          0.54800       -0.63000       -0.88000
H          2.47500        2.19200        0.00900
H          4.94300        2.24700       -0.04200
H          7.10800        1.00200       -0.12900
H          8.94200       -0.31500       -0.20900
H          7.03900       -3.29000       -0.23300
H          4.56200       -3.24700       -0.16100
