26
613-37-6.pdb
C          1.02600        0.22000       -0.22600
O          2.39900        0.02800        0.09500
C          3.04800       -0.92100       -0.64400
C          2.71700       -1.30300       -1.94100
C          3.45800       -2.30000       -2.59500
C          4.55500       -2.93200       -1.98100
C          4.89300       -2.49500       -0.68700
C          4.15200       -1.50600       -0.03000
C          5.31300       -4.01600       -2.65400
C          5.49000       -4.04600       -4.05000
C          6.20100       -5.07800       -4.67700
C          6.76400       -6.09800       -3.92100
C          6.60700       -6.09800       -2.53900
C          5.88500       -5.07300       -1.91700
H          0.59700        0.88100        0.53200
H          0.47600       -0.72600       -0.19700
H          0.91100        0.71300       -1.19700
H          1.89400       -0.84200       -2.47700
H          3.14800       -2.58600       -3.59800
H          5.74800       -2.91900       -0.16500
H          4.43300       -1.20300        0.97600
H          5.08400       -3.25500       -4.67600
H          6.31500       -5.07700       -5.75700
H          7.31900       -6.89800       -4.40500
H          7.04200       -6.89200       -1.93800
H          5.76500       -5.12000       -0.83700
