22
613-45-6.pdb
C          1.35700        0.17400        0.71700
O          2.51900       -0.02900       -0.08000
C          3.02700        1.06600       -0.72400
C          2.54700        2.37000       -0.60500
C          3.14400        3.39900       -1.33900
C          4.21200        3.13200       -2.20900
C          4.67500        4.24700       -3.05500
O          4.52000        5.41800       -2.72600
C          4.72600        1.83500       -2.30700
O          5.73700        1.40800       -3.12600
C          6.92200        2.20200       -3.15600
C          4.11400        0.81100       -1.56500
H          1.07200       -0.79000        1.14800
H          0.51700        0.52900        0.10900
H          1.56200        0.86000        1.54600
H          1.70300        2.62000        0.02800
H          2.74200        4.40800       -1.26100
H          5.16000        3.98800       -4.00700
H          7.78400        1.52700       -3.17000
H          7.02700        2.86700       -2.29300
H          6.94700        2.77200       -4.08900
H          4.48800       -0.20700       -1.65100
