34
61348-28-5.pdb
C          7.56600       -1.49300        2.39200
C          8.66000       -2.02500        1.45400
C          9.78600       -1.00600        1.24100
C          9.26400       -3.27800        2.11000
O          8.11400       -2.46400        0.18300
C          7.42000       -1.58400       -0.58600
O          7.23200       -0.40600       -0.31100
N          6.92400       -2.21300       -1.68400
C          6.26900       -1.47900       -2.78100
C          4.82600       -1.96300       -2.97900
C          3.97700       -1.82700       -1.71300
C          2.56300       -2.32700       -1.90200
N          1.81900       -1.67200       -2.84000
O          2.06200       -3.22500       -1.23200
C          7.00300       -1.64500       -4.15200
O          6.55200       -0.94700       -5.10200
O          7.95500       -2.48500       -4.14300
H          7.97200       -1.25100        3.38000
H          6.77000       -2.23600        2.51500
H          7.08700       -0.58600        2.01200
H         10.24300       -0.71300        2.19300
H          9.43400       -0.09500        0.74900
H         10.56900       -1.42400        0.59700
H          9.71000       -3.04600        3.08400
H         10.03600       -3.72500        1.47500
H          8.49900       -4.04900        2.26000
H          7.43400       -3.03700       -1.98600
H          6.26500       -0.40900       -2.54300
H          4.36300       -1.38900       -3.79100
H          4.82000       -3.01100       -3.31100
H          3.93200       -0.78000       -1.38700
H          4.41700       -2.40800       -0.89200
H          2.24900       -1.06700       -3.52600
H          0.89900       -2.04100       -3.03200
