20
614-80-2.pdb
C          0.89300        1.21700        1.37000
C          2.33800        1.41600        1.74200
O          2.64300        1.81800        2.86100
N          3.20200        1.10200        0.71400
C          4.61300        1.10200        0.76300
C          5.34500        1.21900        1.94500
C          6.74200        1.22000        1.91600
C          7.42100        1.10700        0.70400
C          6.70400        0.97100       -0.48500
C          5.30900        0.95700       -0.44700
O          4.58800        0.80600       -1.60500
H          0.25900        1.52700        2.20700
H          0.70800        0.16000        1.16500
H          0.63800        1.82200        0.49600
H          2.82300        0.93700       -0.21400
H          4.85500        1.29600        2.91000
H          7.29600        1.31200        2.84800
H          8.50600        1.12300        0.69000
H          7.24800        0.88500       -1.42100
H          5.21700        0.67400       -2.33600
