18
614-97-1.pdb
C          3.35200        0.64500        0.01100
C          1.92100        0.18400        0.00100
C          1.62200       -1.18700       -0.00500
C          0.29700       -1.64200       -0.00600
C         -0.73900       -0.70000       -0.00200
N         -2.10000       -0.88800       -0.00000
C         -2.61400        0.32000        0.00500
N         -1.64400        1.28200        0.00600
C         -0.42400        0.65500        0.00300
C          0.88800        1.13800        0.00600
H          4.04600       -0.20100       -0.01400
H          3.55600        1.22000        0.91900
H          3.55400        1.26900       -0.86600
H          2.42400       -1.92300       -0.00800
H          0.06700       -2.70200       -0.01000
H         -3.66900        0.55800        0.00700
H         -1.79900        2.28000        0.01000
H          1.10100        2.20200        0.01000
