19
614-96-0.pdb
C          3.34400       -0.63900        0.01900
C          1.91600       -0.17700        0.00200
C          1.60600        1.18700       -0.00000
C          0.28100        1.63600       -0.00200
C         -0.73000        0.66900       -0.00000
N         -2.09900        0.81400        0.00700
C         -2.70600       -0.41400        0.00800
C         -1.71600       -1.37100       -0.00100
C         -0.46300       -0.69900       -0.00300
C          0.88000       -1.12700       -0.00400
H          4.04000        0.20600        0.02400
H          3.55700       -1.24500       -0.86800
H          3.53600       -1.23500        0.91800
H          2.40500        1.92700        0.00200
H          0.05400        2.69700       -0.00200
H         -2.58000        1.70200        0.01400
H         -3.78400       -0.50100        0.01600
H         -1.87400       -2.44100       -0.00300
H          1.10700       -2.18900       -0.00500
