19
614-21-1.pdb
O          2.22900        3.01200        0.23000
N          2.28000        1.78300        0.08800
O          1.47400        1.10400       -0.55900
C          3.36700        1.06600        0.80300
C          4.56900        1.06500       -0.09500
O          4.78200        0.12200       -0.85800
C          5.55800        2.19000       -0.04300
C          5.36800        3.33800        0.73700
C          6.32500        4.35800        0.73800
C          7.48000        4.23700       -0.02900
C          7.68300        3.09700       -0.80300
C          6.72600        2.08000       -0.81200
H          3.03500        0.04000        0.99000
H          3.54400        1.54400        1.76800
H          4.48300        3.49300        1.34500
H          6.16100        5.25200        1.33500
H          8.22000        5.03400       -0.02700
H          8.58400        3.00100       -1.40400
H          6.90200        1.19800       -1.42800
