23
6141-98-6.pdb
O          1.11000       -0.14900       -0.09900
N          2.37200       -0.04000       -0.09900
N          3.03700       -1.19600       -0.09900
C          4.36200       -1.17900       -0.09900
C          5.01000       -2.40600       -0.10000
C          6.40200       -2.50800       -0.10000
C          7.16900       -1.35500       -0.10000
C          6.53900       -0.11200       -0.10000
C          5.12500        0.00500       -0.09900
C          4.42000        1.24200       -0.09900
C          5.03400        2.52100       -0.09900
C          4.28600        3.70300       -0.09800
C          2.90000        3.64900       -0.09700
C          2.26400        2.41100       -0.09800
C          3.01000        1.20700       -0.09900
H          4.41400       -3.31800       -0.10000
H          6.87700       -3.48500       -0.10000
H          8.25500       -1.41800       -0.10000
H          7.17600        0.76900       -0.09900
H          6.11600        2.62300       -0.09900
H          4.79400        4.66500       -0.09700
H          2.31400        4.56500       -0.09600
H          1.17500        2.36900       -0.09700
