33
61439-59-6.pdb
O          0.95100       -1.17100        1.78400
C          2.37300       -1.21400        1.83800
C          2.91800       -1.36000        0.42300
C          4.42100       -1.40000        0.37700
C          5.11400       -2.61500        0.44000
C          6.50800       -2.64100        0.32600
C          7.22000       -1.45500        0.14400
O          8.57100       -1.58900       -0.04500
C          9.17800       -0.51100       -0.76700
C         10.48300       -0.92500       -1.40500
C         10.72600       -2.24900       -1.79500
C         11.90800       -2.58600       -2.45500
C         12.85200       -1.60400       -2.74600
C         12.61600       -0.28000       -2.37700
C         11.43600        0.05800       -1.71400
C          6.53900       -0.23700        0.15700
C          5.14800       -0.21000        0.26300
H          0.63500       -1.08600        2.70000
H          2.67400       -2.05900        2.46500
H          2.72900       -0.28900        2.30400
H          2.55300       -0.53200       -0.20000
H          2.50400       -2.26100       -0.04800
H          4.57400       -3.55300        0.55300
H          7.03500       -3.59000        0.34900
H          9.36400        0.31000       -0.06400
H          8.52800       -0.16700       -1.58300
H          9.99000       -3.02400       -1.59200
H         12.08500       -3.61700       -2.75200
H         13.76700       -1.86800       -3.26600
H         13.34600        0.48800       -2.61500
H         11.25900        1.09800       -1.44900
H          7.06100        0.71000        0.07200
H          4.63400        0.74800        0.23600
