23
6143-29-9.pdb
C          1.24000        1.74600        1.56500
C          2.72400        1.85800        1.38600
O          3.42300        2.72200        1.89800
O          3.15000        0.91600        0.50700
C          4.52200        1.01500        0.06800
C          4.69800        2.21300       -0.91300
C          4.92100        1.51100       -2.27300
C          4.07700        0.24500       -2.12600
C          4.80200       -0.20300       -0.84800
C          6.22500       -0.14400       -1.36000
C          6.29100        0.87700       -2.22900
H          0.94200        2.25700        2.48500
H          0.94600        0.69700        1.65100
H          0.73500        2.20800        0.71200
H          5.19700        1.05700        0.93200
H          5.56600        2.82400       -0.63400
H          3.81200        2.85500       -0.94400
H          4.71800        2.11200       -3.15900
H          4.19000       -0.46000       -2.95900
H          3.01000        0.44800       -1.98100
H          4.47500       -1.17400       -0.47400
H          7.03500       -0.79500       -1.06500
H          7.15800        1.21200       -2.77700
