18
6146-52-7.pdb
O          1.36100       -0.58800       -0.62800
N          2.30100       -0.07600       -0.00200
O          2.71000        1.08100       -0.17600
C          2.97100       -0.89500        1.01600
C          2.53700       -2.20700        1.24000
C          3.15200       -3.00200        2.21200
C          4.20500       -2.43700        2.94100
N          4.97500       -2.97600        3.94900
C          5.90100       -2.06200        4.37700
C          5.73000       -0.91200        3.64100
C          4.65900       -1.13400        2.73200
C          4.03400       -0.34000        1.75100
H          1.71500       -2.63100        0.66500
H          2.81800       -4.02000        2.39200
H          4.86700       -3.91200        4.31600
H          6.59800       -2.30800        5.16700
H          6.31200       -0.00600        3.74600
H          4.37800        0.67600        1.58100
