14
615-94-1.pdb
O          0.95500        0.00000        0.11300
C          2.33100        0.08700       -0.01000
C          2.96100        1.26400       -0.08400
C          4.42400        1.34300       -0.23200
O          5.01400        2.41800       -0.25300
C          5.17800        0.07500       -0.38400
C          4.56000       -1.10300       -0.30000
C          3.10800       -1.19500       -0.05600
O          2.58000       -2.29000        0.09300
O          6.54000        0.15600       -0.61400
H          0.56200        0.88800        0.08500
H          2.44400        2.21400       -0.04000
H          5.09500       -2.03900       -0.40200
H          6.74800        1.11600       -0.62200
