22
615-84-9.pdb
C          2.28500       -0.83400       -1.18600
C          2.51100        0.12600       -0.03300
N          3.08600        1.37300       -0.47500
C          4.44400        1.57600       -0.57800
O          5.32100        0.76500       -0.31400
C          4.82200        2.99500       -1.06700
O          3.94500        3.79400       -1.36300
N          6.17900        3.22200       -1.10800
C          6.75200        4.47900       -1.52300
C          6.97700        4.53200       -3.02300
H          1.85200       -1.77200       -0.82200
H          3.22400       -1.06700       -1.69900
H          1.59900       -0.40500       -1.92400
H          3.17300       -0.33300        0.70900
H          1.55900        0.36000        0.45400
H          2.48900        2.14200       -0.77100
H          6.77700        2.43600       -0.86400
H          7.70300        4.59400       -0.99500
H          6.08800        5.29500       -1.21700
H          7.66400        3.74200       -3.34400
H          7.40800        5.49700       -3.30900
H          6.03700        4.40100       -3.57000
