16
615-16-7.pdb
O          3.12700        0.01100        0.00200
C          1.90900        0.00900       -0.00100
N          1.07400       -1.11800       -0.00300
C         -0.25000       -0.69300       -0.00300
C         -1.41000       -1.43100       -0.00100
C         -2.61000       -0.71100        0.00400
C         -2.61400        0.70300        0.00600
C         -1.41800        1.43000       -0.00000
C         -0.25400        0.70000       -0.00400
N          1.06900        1.13200       -0.00400
H          1.41100       -2.06600        0.00100
H         -1.40200       -2.51300       -0.00200
H         -3.55700       -1.24700        0.00800
H         -3.56500        1.23200        0.01300
H         -1.41900        2.51300       -0.00100
H          1.40300        2.08100       -0.00100
