18
615-21-4.pdb
N          1.05900        0.14400        0.34200
N          2.43100        0.03500        0.02500
C          3.02800        1.19500       -0.38500
S          2.57800        2.77400        0.15600
C          3.79200        3.47600       -0.83400
C          4.11800        4.83100       -1.01200
C          5.17000        5.15100       -1.87400
C          5.87800        4.15300       -2.53500
C          5.54200        2.80700       -2.35300
C          4.48000        2.45900       -1.49300
N          4.03400        1.17500       -1.23100
H          0.71000       -0.73100        0.73800
H          0.50200        0.33600       -0.49300
H          2.73100       -0.77100       -0.52800
H          3.56600        5.61000       -0.49300
H          5.44000        6.19500       -2.02500
H          6.69900        4.41700       -3.19800
H          6.09200        2.02500       -2.86700
