19
616-91-1.pdb
C          0.88700        1.19700        0.77300
C          2.37500        1.29500        0.96300
O          2.89500        1.46600        2.05800
N          3.10000        1.29500       -0.21100
C          4.58000        1.25400       -0.17400
C          5.16900        0.53100       -1.39000
S          4.52600       -1.17100       -1.53900
C          5.18200        2.66700       -0.14200
O          4.26100        3.65800       -0.13400
O          6.38400        2.89500       -0.16600
H          0.43700        0.73500        1.65500
H          0.63900        0.58900       -0.10100
H          0.48200        2.20400        0.64000
H          2.66000        0.86300       -1.01900
H          4.88800        0.75700        0.75500
H          6.26200        0.48200       -1.32400
H          4.92000        1.06300       -2.31600
H          4.85500       -1.57100       -0.30000
H          3.36500        3.27500       -0.06000
