16
616-25-1.pdb
C          1.02600        0.02600        0.10600
C          2.54900        0.04600        0.06700
C          3.08800       -0.16700       -1.35100
O          2.64400        0.88200       -2.20500
C          4.58900       -0.17500       -1.37900
C          5.32400       -1.20900       -1.81400
H          0.67100        0.15700        1.13300
H          0.63800       -0.92700       -0.26900
H          0.60200        0.83200       -0.50200
H          2.93300       -0.73300        0.73600
H          2.88700        1.01300        0.46100
H          2.68900       -1.10500       -1.75600
H          3.01600        1.71300       -1.86900
H          5.10100        0.71700       -1.02800
H          4.86200       -2.11900       -2.18400
H          6.40800       -1.15900       -1.82100
