14
616-03-5.pdb
C          1.10400       -0.05500        0.21900
C          2.60300       -0.07400        0.01800
N          3.24600       -1.21600        0.61900
C          4.30400       -0.84400        1.41500
O          5.08200       -1.61400        1.94900
N          4.32900        0.50700        1.49600
C          3.32700        1.05300        0.75600
O          3.08100        2.24700        0.67100
H          0.63700       -0.91200       -0.28000
H          0.66800        0.86000       -0.19100
H          0.83900       -0.10400        1.28200
H          2.87500       -0.04400       -1.04100
H          3.11700       -2.18400        0.35100
H          4.98600        1.02700        2.05000
