16
616-29-5.pdb
N          2.84900        0.22600        1.49000
C          2.47900       -0.08600        0.10400
C          3.00700        0.96500       -0.88800
O          2.45700        2.24100       -0.51400
C          4.55100        1.00200       -0.93400
N          5.04800        2.03100       -1.85700
H          2.37300       -0.42400        2.11300
H          2.46100        1.14800        1.70500
H          1.38500       -0.11100        0.04700
H          2.85600       -1.07800       -0.15800
H          2.61700        0.73200       -1.89000
H          3.21100        2.76600       -0.18300
H          4.94100        0.02600       -1.23500
H          4.95400        1.24100        0.05500
H          4.64400        1.88300       -2.78400
H          6.05600        1.92100       -1.96300
