42
6160-78-7.pdb
C         10.33900        0.93800       -0.51200
C          9.54300        2.13500       -0.08800
C         10.13900        3.26900        0.30200
C          9.41000        4.46300        0.74600
O         10.01300        5.49000        1.05500
O          8.03500        4.36100        0.82200
C          7.38100        3.20900        0.36700
C          5.98100        3.26500        0.39700
C          5.25900        2.19600       -0.09700
O          3.90300        2.15100       -0.16100
C          3.15600        3.35600       -0.36800
O          3.78500        4.35300       -1.19300
C          2.84600        5.33900       -1.66000
C          3.57500        6.33300       -2.58300
O          4.19000        5.69200       -3.70100
C          2.16900        6.05500       -0.47200
O          3.07300        6.91600        0.23800
C          1.59900        5.04200        0.53200
O          1.09400        5.70800        1.69400
C          2.65400        3.99400        0.94300
O          2.09300        3.00500        1.81500
C          5.92400        1.05100       -0.53000
C          7.32300        0.99500       -0.53900
C          8.06800        2.09100       -0.09400
H         11.41500        1.12000       -0.43100
H         10.13100        0.67500       -1.55400
H         10.10900        0.07600        0.12500
H         11.22300        3.37300        0.31800
H          5.51500        4.15600        0.78700
H          2.27800        2.99000       -0.91700
H          2.09400        4.80700       -2.25500
H          2.86500        7.06600       -2.97900
H          4.36700        6.86800       -2.05200
H          3.76200        4.83300       -3.85100
H          1.36100        6.70000       -0.83500
H          3.96500        6.52200        0.22300
H          0.74400        4.52100        0.08700
H          1.68200        6.47800        1.84600
H          3.46100        4.48700        1.49300
H          1.18700        3.28000        2.04400
H          5.35000        0.19700       -0.88900
H          7.80200        0.09400       -0.90900
