16
6164-79-0.pdb
C          1.26200       -0.01200       -2.65400
O          2.68000       -0.02200       -2.50100
C          3.11700       -0.48200       -1.30100
O          2.41200       -0.85600       -0.37600
C          4.60300       -0.47900       -1.25800
C          5.24200       -0.94400       -0.11700
N          6.59500       -0.98300       -0.00400
C          7.28000       -0.53500       -1.08200
C          6.64500       -0.06700       -2.22100
N          5.29900       -0.02700       -2.33900
H          1.03700        0.25900       -3.69000
H          0.81500        0.73600       -1.99300
H          0.84200       -1.00400       -2.46000
H          4.68800       -1.30400        0.74400
H          8.36100       -0.56400       -1.00600
H          7.20700        0.29000       -3.07700
