24
6165-76-0.pdb
C          2.44500        0.00300       -0.01100
C          0.94300        0.01700        0.00700
C          0.23500        1.22700        0.00800
C         -1.16400        1.23000        0.01700
C         -1.85800        0.01500        0.03400
C         -1.16500       -1.19700        0.01900
C          0.23200       -1.19100        0.00900
S         -3.63600       -0.00500       -0.04500
O         -4.08900        1.37100       -0.05900
O         -3.99200       -0.90700       -1.12500
O         -4.14400       -0.67700        1.35600
C         -5.55800       -0.77800        1.45600
C         -6.03000       -1.39900        2.76100
C         -6.43500       -1.93100        3.88000
H          2.85900        1.01600        0.00400
H          2.80900       -0.49400       -0.91600
H          2.82700       -0.52700        0.86800
H          0.76900        2.17600       -0.00500
H         -1.69300        2.18000       -0.00600
H         -1.70100       -2.14200       -0.00800
H          0.76900       -2.13900       -0.00400
H         -5.94200       -1.39300        0.63400
H         -6.00500        0.22000        1.38100
H         -6.76400       -2.36700        4.79600
