18
617-84-5.pdb
C          2.42800       -0.14800        1.41700
C          2.58100        0.08400       -0.07900
N          3.06300       -1.10100       -0.78200
C          2.17400       -2.03800       -1.46700
C          0.67700       -1.84600       -1.29800
C          4.42800       -1.33900       -0.86900
O          4.95500       -2.26200       -1.47400
H          2.13400        0.78200        1.91400
H          3.36800       -0.48800        1.86300
H          1.66600       -0.90400        1.62700
H          3.31700        0.88400       -0.22600
H          1.64600        0.43600       -0.52000
H          2.44500       -3.04800       -1.13700
H          2.42100       -1.98400       -2.53500
H          0.38000       -1.90000       -0.24700
H          0.14000       -2.63300       -1.83900
H          0.34500       -0.88800       -1.70700
H          5.02700       -0.59300       -0.32000
