26
617-05-0.pdb
C          1.54200       -1.07400        0.60900
C          2.52300       -0.34000       -0.28700
O          3.35900       -1.32100       -0.91500
C          4.44900       -1.69600       -0.20100
O          4.92200       -1.10700        0.75600
C          4.92400       -3.02300       -0.67600
C          4.29200       -3.71300       -1.71600
C          4.73100       -4.98700       -2.07400
C          5.80200       -5.58000       -1.39700
O          6.19300       -6.83100       -1.78600
C          6.44200       -4.90500       -0.35200
O          7.48100       -5.32900        0.43000
C          8.03500       -6.61100        0.17500
C          5.99300       -3.62300       -0.00100
H          0.84100       -0.38400        1.08200
H          2.07100       -1.63200        1.39000
H          0.97800       -1.81300        0.02700
H          3.10600        0.40200        0.26900
H          1.98500        0.18900       -1.07900
H          3.44700       -3.28000       -2.24500
H          4.21500       -5.50900       -2.87600
H          5.65300       -7.11700       -2.54100
H          8.84100       -6.77200        0.89900
H          8.48100       -6.65700       -0.82300
H          7.29700       -7.40500        0.33500
H          6.47900       -3.09900        0.82000
