16
617-45-8.pdb
N          0.94600       -0.18700        0.24600
C          2.43600       -0.06700        0.21000
C          2.89400        1.35000        0.52300
C          4.35200        1.54200        0.18000
O          5.20000        1.34100        1.20300
O          4.73100        1.85300       -0.94100
C          2.98100       -1.04300        1.26200
O          2.17000       -2.12000        1.40800
O          3.99200       -0.86100        1.92800
H          0.55600        0.38800       -0.50600
H          0.60000        0.25300        1.10500
H          2.78700       -0.40200       -0.77200
H          2.72700        1.62600        1.57100
H          2.33800        2.07800       -0.07900
H          4.82100        0.82200        1.94900
H          1.37200       -1.95000        0.84700
