22
617-94-7.pdb
C          0.92100       -0.08700       -0.09500
C          2.45400       -0.11900       -0.03000
C          2.98200       -1.50600       -0.41800
O          2.93300        0.80700       -1.01500
C          2.96100        0.28000        1.35500
C          2.56200       -0.43300        2.50100
C          3.03200       -0.08500        3.77000
C          3.91500        0.98100        3.91900
C          4.32200        1.70100        2.80000
C          3.85000        1.35300        1.53100
H          0.56900       -0.34100       -1.10200
H          0.54400        0.92000        0.12100
H          0.45600       -0.78400        0.60900
H          2.68800       -1.76300       -1.44300
H          2.61300       -2.29300        0.24800
H          4.07800       -1.52600       -0.39600
H          2.60400        0.51300       -1.88100
H          1.87900       -1.27600        2.41800
H          2.71000       -0.64900        4.64200
H          4.28400        1.25000        4.90400
H          5.01100        2.53500        2.91000
H          4.18700        1.93300        0.67400
