31
6175-45-7.pdb
C          0.76000        0.11800       -0.06400
C          2.26100       -0.10700       -0.08200
O          2.86900        1.06100       -0.61800
C          4.29900        1.01400       -0.64100
O          4.77900       -0.06300       -1.43900
C          4.40400        0.05100       -2.81200
C          4.91200       -1.17400       -3.54700
C          4.85100        2.41300       -1.04100
O          4.11000        3.36500       -1.30700
C          6.32800        2.64200       -1.10700
C          7.27500        1.70100       -0.68700
C          8.64300        1.99500       -0.76900
C          9.07200        3.22400       -1.27300
C          8.13900        4.16400       -1.69800
C          6.77600        3.87400       -1.61400
H          0.22800       -0.79800        0.21200
H          0.40400        0.45400       -1.04400
H          0.49800        0.90300        0.65400
H          2.48800       -0.97000       -0.71600
H          2.62500       -0.29900        0.93300
H          4.63500        0.84100        0.39000
H          4.85200        0.94800       -3.25000
H          3.31500        0.10800       -2.91100
H          5.98800       -1.30500       -3.38800
H          4.72000       -1.08900       -4.62000
H          4.42100       -2.07800       -3.17400
H          6.98300        0.73200       -0.29000
H          9.37700        1.26500       -0.43900
H         10.13400        3.44800       -1.33500
H          8.46600        5.12200       -2.09200
H          6.05800        4.62200       -1.95000
