19
618-47-3.pdb
C          2.49000       -0.00100       -0.00900
C          0.99000       -0.01100        0.01200
C          0.26400        1.19000        0.01000
C         -1.13000        1.17300       -0.00000
C         -1.81500       -0.04400       -0.00600
C         -1.10400       -1.25100        0.01200
C          0.29700       -1.23000        0.01500
C         -1.87300       -2.52100       -0.00200
N         -1.27800       -3.62600        0.54100
O         -3.01000       -2.58200       -0.45600
H          2.88700        1.01900        0.00500
H          2.85500       -0.49100       -0.91900
H          2.88300       -0.52700        0.86600
H          0.78200        2.14700        0.00500
H         -1.68700        2.10700       -0.01200
H         -2.90300       -0.05100       -0.02500
H          0.86100       -2.15800       -0.01600
H         -0.43900       -3.58100        1.10200
H         -1.85000       -4.45900        0.61000
