18
618-27-9.pdb
O         -2.00000       -0.03400        0.13400
C         -0.68800       -0.01300       -0.39300
C          0.18100       -1.14000        0.14500
N          1.57300       -0.68900       -0.03800
C          1.52100        0.81600        0.04800
C          0.05400        1.22200        0.07600
C          2.25500        1.27900        1.31000
O          2.76100        0.23300        2.01300
O          2.38500        2.44400        1.65400
H         -2.42600       -0.86200       -0.14800
H         -0.73600       -0.03800       -1.48800
H         -0.00700       -2.08200       -0.37900
H         -0.01700       -1.31800        1.20900
H          1.84600       -0.91700       -1.00000
H          2.04700        1.23000       -0.81900
H         -0.14500        2.07200       -0.58600
H         -0.27600        1.51600        1.08000
H          2.51200       -0.57900        1.50600
