19
618-84-8.pdb
N          2.31900        0.01800       -0.18700
C          0.93500       -0.00200       -0.00200
C          0.20700        1.19100       -0.02400
C         -1.19700        1.19400        0.00200
C         -1.89100       -0.01900        0.02500
C         -1.16000       -1.21800       -0.00300
C          0.24200       -1.21100       -0.03500
N         -1.87100       -2.50300       -0.00700
O         -3.11100       -2.46800       -0.01700
O         -1.19600       -3.54000       -0.00500
C         -1.87300        2.51600        0.05300
O         -3.10200        2.55600       -0.49700
O         -1.33300        3.50200        0.53000
H          2.77800        0.87200        0.12100
H          2.81100       -0.81300        0.12700
H          0.73800        2.14200       -0.05500
H         -2.97600       -0.04100        0.08400
H          0.80000       -2.14500       -0.08200
H         -3.39900        1.76400       -0.98100
