20
618-95-1.pdb
C          1.02900       -0.29900       -0.56200
O          2.45700       -0.32800       -0.61700
C          3.01200        0.83800       -1.02400
O          2.40600        1.85600       -1.32000
C          4.49400        0.72600       -1.09100
C          5.17700       -0.44900       -0.74500
C          6.56900       -0.51700       -0.85600
C          7.28900        0.58600       -1.31700
C          6.60800        1.76300       -1.65900
C          5.21400        1.84100       -1.54100
N          7.35900        2.91700       -2.16600
O          8.58700        2.79600       -2.28500
O          6.72300        3.94200       -2.44900
H          0.69000       -1.21500       -0.07300
H          0.61800       -0.27100       -1.57600
H          0.67500        0.55600        0.02200
H          4.63600       -1.32600       -0.39300
H          7.09100       -1.43500       -0.59000
H          8.37100        0.51300       -1.40700
H          4.68200        2.75500       -1.80400
