36
618-65-5.pdb
O          4.81300       -1.21000       -0.44700
C          3.81800       -1.35800       -1.46400
C          2.84800       -0.17200       -1.40600
O          3.55400        1.01700       -1.78300
C          2.78000        2.20500       -1.60400
O          3.56200        3.37300       -1.90200
C          4.63800        3.65300       -1.09500
C          5.00800        2.89100        0.02200
C          6.14000        3.22000        0.77300
C          6.92300        4.31400        0.42100
C          6.56400        5.09100       -0.67600
C          5.42400        4.76400       -1.42900
C          5.07800        5.63200       -2.57900
O          5.75400        6.60700       -2.89000
C          1.56300        2.16200       -2.55900
O          0.72300        3.31600       -2.40800
C          0.75600        0.87200       -2.30500
O         -0.32300        0.73600       -3.23700
C          1.66000       -0.37500       -2.35000
O          0.94300       -1.56200       -2.00300
H          5.48600       -1.89200       -0.61600
H          3.30600       -2.30700       -1.28600
H          4.32800       -1.39400       -2.43300
H          2.50700       -0.06700       -0.36600
H          2.41100        2.28800       -0.57100
H          4.45500        2.00800        0.33000
H          6.41900        2.60300        1.62400
H          7.81000        4.55900        0.99900
H          7.17700        5.95100       -0.94700
H          4.17600        5.37000       -3.15400
H          1.90800        2.17700       -3.59900
H          0.27700        3.27600       -1.54500
H          0.26800        0.93300       -1.32500
H          0.03900        0.78800       -4.14000
H          2.01600       -0.51200       -3.37900
H          0.26100       -1.34200       -1.34500
