23
618-98-4.pdb
C          1.48200       -1.04300       -0.21200
C          2.44800        0.11100       -0.42000
O          3.32200       -0.24100       -1.50100
C          4.42600       -0.94000       -1.14300
O          4.86800       -1.06500       -0.01200
C          4.97300       -1.67000       -2.31600
C          4.40100       -1.57500       -3.59400
C          4.89300       -2.34800       -4.64800
C          5.96400       -3.21800       -4.43500
C          6.54100       -3.30800       -3.16200
C          6.05200       -2.53800       -2.09800
N          7.66100       -4.23000       -2.93300
O          8.08200       -4.87300       -3.90500
O          8.11500       -4.31300       -1.78500
H          0.76500       -0.82400        0.58200
H          2.02200       -1.96100        0.04100
H          0.93500       -1.24900       -1.13900
H          2.99900        0.34600        0.49800
H          1.90100        1.01200       -0.71500
H          3.55500       -0.91600       -3.78000
H          4.43400       -2.27900       -5.63200
H          6.32900       -3.82000       -5.26600
H          6.48400       -2.61900       -1.10300
