23
6180-61-6.pdb
O          2.94200        0.53600       -1.34700
C          2.38700        0.07100       -0.12500
C          2.94200       -1.30600        0.20400
C          4.46100       -1.27900        0.34900
O          4.90900       -2.58900        0.70500
C          6.25600       -2.73600        0.90300
C          7.21700       -1.73000        0.77300
C          8.56500       -2.00800        1.01800
C          8.96000       -3.29000        1.39000
C          8.00800       -4.30000        1.51400
C          6.66100       -4.02100        1.26900
H          2.54000        1.40300       -1.53600
H          1.29900        0.02500       -0.23200
H          2.63300        0.78900        0.66400
H          2.67700       -2.01800       -0.58600
H          2.48700       -1.68200        1.12800
H          4.73100       -0.56700        1.13900
H          4.91800       -0.97800       -0.60100
H          6.95300       -0.71900        0.48100
H          9.30600       -1.21900        0.91700
H         10.00800       -3.50300        1.58200
H          8.31100       -5.30400        1.80000
H          5.92100       -4.81200        1.36600
