17
61832-41-5.pdb
C          0.96500        0.30600       -0.03100
N          2.38000        0.08900        0.14600
C          3.10700       -1.07400       -0.07200
S          2.32800       -2.63700       -0.38000
C          1.53100       -2.95000        1.20900
C          4.45500       -1.14400       -0.12200
N          5.30700        0.00900        0.02400
O          4.80600        1.14100        0.09800
O          6.52300       -0.22300        0.04300
H          0.75700        1.38100       -0.01700
H          0.40100       -0.14300        0.79000
H          0.60700       -0.09300       -0.98500
H          2.94600        0.94600        0.12800
H          1.15700       -3.97800        1.22000
H          0.67700       -2.28600        1.35700
H          2.23400       -2.83100        2.03700
H          5.05100       -2.02900       -0.28200
