56
6186-22-7.pdb
C          6.18900       -4.45500       -7.21700
O          5.84300       -4.65300       -5.84600
C          4.65300       -4.12100       -5.46800
O          3.84600       -3.55000       -6.19700
C          4.53300       -4.18400       -3.99600
C          5.16300       -5.23300       -3.30200
C          5.23000       -5.21400       -1.91100
C          4.67200       -4.14700       -1.21300
C          4.02000       -3.11300       -1.89800
C          3.92600       -3.11900       -3.29600
N          3.23400       -2.08100       -3.98800
C          3.32400       -0.73500       -3.64900
O          4.01100       -0.30100       -2.72300
C          2.60300        0.23000       -4.59300
N          1.13000        0.29300       -4.40600
C          0.62000        0.66600       -3.10700
C         -0.50900        0.01000       -2.60500
C         -1.10600        0.42800       -1.40800
C         -2.38500       -0.19000       -0.92300
C         -0.52700        1.47900       -0.68500
C          0.59000        2.15700       -1.18400
C          1.23000        3.26800       -0.40600
C          1.13900        1.76200       -2.41100
S          0.23200        0.89300       -5.74100
O          0.95800        0.57300       -6.95000
O         -1.14900        0.47400       -5.59700
C          0.23500        2.68600       -5.59800
C          1.22900        3.44000       -6.23100
C          1.11100        4.83400       -6.28800
C          0.00100        5.47100       -5.73300
C         -0.99100        4.71900       -5.10400
C         -0.87800        3.32800       -5.03800
H          7.08300       -5.04900       -7.42300
H          6.42500       -3.40200       -7.39400
H          5.38600       -4.79300       -7.87900
H          5.63500       -6.05200       -3.84000
H          5.73700       -6.01500       -1.37800
H          4.74400       -4.11500       -0.12800
H          3.57600       -2.30700       -1.31700
H          2.95000       -2.30000       -4.94500
H          2.85000       -0.09400       -5.60900
H          3.04600        1.22300       -4.46600
H         -0.93900       -0.81900       -3.16400
H         -2.72600       -0.98900       -1.58800
H         -3.17100        0.57300       -0.89400
H         -2.25800       -0.61000        0.08000
H         -0.96500        1.78300        0.26400
H          0.55900        3.65500        0.36700
H          1.48900        4.10200       -1.06600
H          2.14100        2.90000        0.07800
H          1.97300        2.32900       -2.81400
H          2.07200        2.95700       -6.71800
H          1.86900        5.42600       -6.79900
H         -0.10500        6.55200       -5.81000
H         -1.86800        5.21500       -4.69300
H         -1.68200        2.75100       -4.58200
