18
619-05-6.pdb
N         -1.85600        1.31300        0.07600
C         -0.59200        0.67200       -0.01000
C          0.58400        1.41200        0.11300
C          1.82400        0.76800        0.07800
C          1.91300       -0.62800       -0.05300
C          0.71900       -1.36600       -0.11800
C         -0.52400       -0.73700       -0.01100
N         -1.72000       -1.49700       -0.09700
C          3.25900       -1.32200       -0.09800
O          4.29400       -0.58500       -0.04300
O          3.25500       -2.59100       -0.18200
H         -1.80000        2.26500       -0.27100
H         -2.52000        0.76000       -0.46500
H          0.55400        2.49100        0.21200
H          2.74200        1.35100        0.14700
H          0.78500       -2.44800       -0.21400
H         -1.54100       -2.45800        0.18500
H         -2.41500       -1.06000        0.50400
