19
619-67-0.pdb
N          1.28300       -0.48900       -0.25300
N          2.47900        0.22000       -0.02900
C          3.21800       -0.04900        1.15400
C          2.78200       -0.93500        2.14700
C          3.53500       -1.13800        3.30800
C          4.72300       -0.43000        3.51500
C          5.16500        0.46900        2.53900
C          4.40800        0.66200        1.37600
C          5.49000       -0.71600        4.75700
O          6.20100        0.33200        5.22400
O          5.44700       -1.79100        5.32400
H          0.87200       -0.21900       -1.15000
H          0.58700       -0.20000        0.44200
H          3.12600        0.23800       -0.82500
H          1.86900       -1.50900        2.01300
H          3.19200       -1.86200        4.04600
H          6.10600        1.00300        2.64300
H          4.75600        1.37600        0.63100
H          6.01600        1.18600        4.79400
