18
619-25-0.pdb
O          2.68400       -1.05300       -1.01600
C          2.32800        0.00100       -0.13300
C          2.79000        1.32600       -0.68000
C          2.05800        2.49200       -0.40800
C          2.49100        3.73700       -0.87400
C          3.67300        3.83800       -1.60700
C          4.42000        2.68300       -1.87000
C          3.98600        1.43300       -1.41000
N          5.67600        2.78600       -2.62300
O          6.03500        3.91400       -2.99200
O          6.31000        1.74400       -2.84000
H          2.34600       -1.87500       -0.62500
H          2.79600       -0.17700        0.84100
H          1.23900       -0.01200       -0.01800
H          1.13700        2.43900        0.17000
H          1.90700        4.63000       -0.66000
H          3.99700        4.81500       -1.95900
H          4.56400        0.53300       -1.61600
