21
619-64-7.pdb
C          3.66600       -0.10700       -0.98000
C          2.49200       -0.08900       -0.01500
C          2.92000        0.21800        1.39900
C          3.00200        1.54400        1.83900
C          3.35400        1.83100        3.15900
C          3.64200        0.79700        4.05800
C          3.58300       -0.53100        3.62000
C          3.23400       -0.81600        2.29600
C          3.92900        1.17800        5.46700
O          4.74100        0.33200        6.13300
O          3.48600        2.19800        5.96900
H          3.31700       -0.32300       -1.99500
H          4.39600       -0.87500       -0.70100
H          4.18100        0.85900       -0.99700
H          1.97400       -1.05600       -0.04200
H          1.75500        0.65500       -0.34300
H          2.77100        2.36300        1.16100
H          3.38400        2.86800        3.49000
H          3.75900       -1.36300        4.29700
H          3.17900       -1.85200        1.96600
H          5.14800       -0.37200        5.59900
