18
619-14-7.pdb
O          1.11600        0.36600       -0.02300
C          2.43700        0.09000       -0.01600
O          3.00500       -0.42400        0.93000
C          3.13900        0.44400       -1.27600
C          2.75200        1.53600       -2.06400
C          3.47300        1.85400       -3.22100
C          4.59500        1.08900       -3.58300
C          4.99000        0.00500       -2.78900
O          6.06700       -0.80200       -3.03500
C          4.26200       -0.31300       -1.63900
N          5.34500        1.46100       -4.78700
O          4.94300        2.43000       -5.44500
O          6.34100        0.77900       -5.07400
H          0.73300        0.59800       -0.88700
H          1.92100        2.17500       -1.77500
H          3.15900        2.71000       -3.81700
H          6.54700       -0.49800       -3.83500
H          4.58100       -1.14800       -1.01700
