19
619-17-0.pdb
N          2.35400        0.02600       -0.21100
C          0.96200       -0.02700       -0.01200
C          0.24500        1.17800       -0.05300
C         -1.15600        1.17300       -0.00800
C         -1.86200       -0.03600        0.03700
C         -1.15900       -1.24400        0.04000
C          0.24600       -1.24600       -0.01300
C          0.99400       -2.53600        0.03500
O          0.37400       -3.56600       -0.57700
O          2.08200       -2.64500        0.58000
N         -1.88800        2.44500       -0.00400
O         -1.22600        3.49300        0.00700
O         -3.12500        2.39500       -0.00700
H          2.80900        0.85600        0.15900
H          2.82800       -0.82800        0.11200
H          0.79000        2.11900       -0.11400
H         -2.95100       -0.05200        0.07700
H         -1.72200       -2.17100        0.11500
H         -0.37600       -3.32400       -1.14800
