17
619-21-6.pdb
O          1.15300        0.00200       -0.05100
C          2.48600       -0.17500       -0.14500
O          3.09800       -1.00300        0.50800
C          3.14800        0.69000       -1.15400
C          2.68700        1.98200       -1.44200
C          3.35400        2.76600       -2.38700
C          4.49300        2.27300       -3.02500
C          4.97000        0.99700       -2.71300
C          6.20000        0.48900       -3.35300
O          6.82700        1.15600       -4.16900
C          4.29900        0.19800       -1.78300
H          0.75100        0.55700       -0.74400
H          1.83700        2.41100       -0.91800
H          3.00000        3.77000       -2.61400
H          5.01900        2.89200       -3.75000
H          6.53100       -0.52200       -3.06100
H          4.66900       -0.79500       -1.53400
