18
619-73-8.pdb
O          3.31800        0.52100       -0.98700
C          2.43800       -0.09900       -0.06300
C          2.83300        0.28800        1.33700
C          2.86200        1.64100        1.71200
C          3.19600        2.01300        3.01600
C          3.50300        1.02200        3.95600
C          3.48600       -0.33100        3.59600
C          3.15100       -0.69200        2.28800
N          3.83600        1.40400        5.33300
O          3.82600        2.61000        5.61800
O          4.10000        0.49600        6.13600
H          3.02600        0.25300       -1.87400
H          2.49100       -1.18300       -0.20700
H          1.41300        0.23000       -0.26300
H          2.62800        2.41100        0.97800
H          3.21100        3.06900        3.27900
H          3.72600       -1.11100        4.31600
H          3.14100       -1.74600        2.01600
