20
619-04-5.pdb
C          1.85500        1.50600       -0.01000
C          0.58500        0.70400        0.00600
C         -0.65100        1.36700        0.01900
C         -1.84900        0.64700        0.00900
C         -1.84800       -0.75400       -0.01900
C         -0.60700       -1.41100       -0.01600
C          0.60700       -0.70400        0.00200
C          1.89600       -1.47500        0.02000
C         -3.14300       -1.54100       -0.05700
O         -4.22800       -0.87600       -0.06600
O         -3.05200       -2.81000       -0.08100
H          1.65300        2.58200       -0.02200
H          2.43800        1.27300       -0.90800
H          2.45400        1.29100        0.88000
H         -0.69900        2.45200        0.03400
H         -2.80200        1.17400        0.01900
H         -0.60800       -2.50200       -0.02900
H          1.71900       -2.55600        0.02500
H          2.46900       -1.23300        0.92100
H          2.49300       -1.24200       -0.86700
