18
619-80-7.pdb
N          1.08500        0.16700       -0.22100
C          2.41200        0.06200        0.08300
O          2.93700        0.79800        0.90800
C          3.17900       -1.01400       -0.59300
C          2.83300       -1.47700       -1.87100
C          3.59200       -2.48200       -2.48000
C          4.69500       -3.02400       -1.80300
C          5.04900       -2.56000       -0.53000
C          4.29100       -1.55000        0.06900
N          5.49100       -4.08400       -2.43500
O          5.14500       -4.46900       -3.56100
O          6.45700       -4.53400       -1.80400
H          0.55300        0.82700        0.33200
H          0.57400       -0.56800       -0.68800
H          1.99700       -1.04200       -2.41400
H          3.31900       -2.82200       -3.47800
H          5.90700       -2.96400        0.00500
H          4.56700       -1.18100        1.05600
