24
619-82-9.pdb
O          1.20200       -0.44200       -0.40100
C          2.46000       -0.12700       -0.01700
O          2.95600       -0.56900        1.00700
C          3.15000        0.84100       -0.96200
C          4.66800        0.61700       -0.94300
C          5.40100        1.62800       -1.82100
C          5.05300        3.06700       -1.43400
C          3.53600        3.29200       -1.45200
C          2.80300        2.28000       -0.57300
C          5.74800        4.02600       -2.38400
O          6.98000        4.39400       -1.96800
O          5.27700        4.41300       -3.44300
H          0.91400       -0.01900       -1.23200
H          2.79800        0.63700       -1.98200
H          4.89900       -0.40000       -1.28200
H          5.05000        0.69500        0.08300
H          5.14300        1.45000       -2.87300
H          6.48300        1.46700       -1.73800
H          5.40500        3.27200       -0.41400
H          3.15300        3.21500       -2.47800
H          3.30600        4.30900       -1.11300
H          1.72100        2.44200       -0.65200
H          3.06400        2.45700        0.47900
H          7.25200        4.00800       -1.11400
