22
619-86-3.pdb
C          0.90000       -0.52200        0.06400
C          2.39500       -0.77000        0.13800
O          2.96000       -0.55300       -1.15700
C          4.30500       -0.76400       -1.28000
C          5.16800       -1.13300       -0.24600
C          6.52500       -1.33700       -0.50200
C          7.04300       -1.16900       -1.79200
C          6.18300       -0.80400       -2.83500
C          4.82000       -0.59700       -2.57100
C          8.49000       -1.45500       -1.98700
O          9.07500       -0.75400       -2.97800
O          9.10200       -2.23400       -1.27700
H          0.43900       -0.63800        1.05000
H          0.42700       -1.22500       -0.63000
H          0.69200        0.48700       -0.30800
H          2.56500       -1.80400        0.46000
H          2.83500       -0.07300        0.86200
H          4.81700       -1.28200        0.76900
H          7.18000       -1.64200        0.31100
H          6.53100       -0.71400       -3.85900
H          4.14800       -0.32300       -3.38100
H          8.53100       -0.05600       -3.38300
