22
6191-71-5.pdb
C          1.47200        1.26000       -0.22100
C          2.32700        0.02100       -0.02100
C          2.94300       -0.01700        1.35100
C          4.26200       -0.03000        1.60900
C          5.31000        0.00400        0.53200
C          6.73700       -0.01800        1.06900
C          7.73000        0.02600       -0.08700
O          9.05800       -0.00100        0.41100
H          1.06900        1.27300       -1.23900
H          2.05800        2.17500       -0.07900
H          0.62900        1.27900        0.47700
H          3.08700       -0.00300       -0.80700
H          1.71400       -0.87800       -0.15500
H          2.24800       -0.05200        2.18900
H          4.59100       -0.07300        2.64200
H          5.17500        0.91600       -0.06400
H          5.17200       -0.86000       -0.12800
H          6.91300       -0.92000        1.66800
H          6.91300        0.83100        1.74000
H          7.59900        0.93300       -0.68800
H          7.59700       -0.83800       -0.74600
H          9.17000        0.77900        0.98300
