17
62-23-7.pdb
O          3.19400        1.18900        0.35000
C          2.43400        0.12400        0.02000
O          1.23700        0.19400       -0.19000
C          3.20600       -1.13900       -0.10300
C          2.76600       -2.11400       -1.01300
C          3.47800       -3.31300       -1.15800
C          4.62400       -3.53000       -0.38200
C          5.05200       -2.56900        0.54100
C          4.33500       -1.38200        0.69000
N          5.38600       -4.77600       -0.52900
O          4.98000       -5.60700       -1.35500
O          6.39500       -4.92100        0.17800
H          4.15800        1.05200        0.30400
H          1.87200       -1.94400       -1.61200
H          3.12600       -4.05800       -1.87000
H          5.93700       -2.73200        1.16000
H          4.65600       -0.67000        1.44700
