16
62-57-7.pdb
C          1.06800       -0.03700        0.00600
C          2.59600       -0.06100        0.02000
C          3.14100       -1.06400       -0.99500
N          3.09800        1.31200       -0.29800
C          3.07500       -0.42200        1.44600
O          3.34400        0.69800        2.16800
O          3.18700       -1.55200        1.89600
H          0.67900        0.21300       -0.98800
H          0.67200        0.69600        0.71700
H          0.65900       -1.01300        0.29000
H          2.80800       -0.82500       -2.01200
H          2.80000       -2.08000       -0.76500
H          4.23800       -1.08400       -0.99100
H          2.73800        1.57500       -1.22000
H          4.11400        1.25700       -0.43700
H          3.19100        1.46100        1.55400
