15
620-08-6.pdb
C          1.16800       -0.27900       -0.39800
O          2.51400       -0.01500       -0.01800
C          3.06300       -0.89500        0.87400
C          2.68200       -2.22300        1.03200
C          3.35600       -2.98500        1.97400
N          4.35900       -2.51800        2.74700
C          4.71600       -1.23000        2.55900
C          4.11000       -0.39300        1.63900
H          0.82500        0.55800       -1.01500
H          0.51600       -0.33700        0.48100
H          1.09300       -1.18600       -1.00500
H          1.90200       -2.68400        0.44400
H          3.09900       -4.03000        2.13400
H          5.52800       -0.87700        3.18700
H          4.43900        0.63400        1.52700
