14
620-02-0.pdb
C          2.12400        0.00900        0.00000
C          0.65400       -0.13400        0.00300
O         -0.07600        1.01700        0.01400
C         -1.39500        0.65800        0.01400
C         -2.39000        1.69600        0.02600
O         -3.60400        1.50900        0.02700
C         -1.50500       -0.71700        0.00200
C         -0.18500       -1.22800       -0.00500
H          2.42500        1.06100        0.01100
H          2.55000       -0.45800       -0.89300
H          2.55500       -0.47700        0.88100
H         -1.99000        2.72400        0.03300
H         -2.43200       -1.27500       -0.00100
H          0.12000       -2.26500       -0.01500
