30
620-93-9.pdb
C          2.53200        0.06400       -0.00600
C          1.03300        0.05500        0.02600
C          0.32900        1.06800        0.67900
C         -1.06600        1.07800        0.66000
C         -1.78800        0.08700       -0.01900
N         -3.19800        0.12600       -0.11800
C         -4.00700        1.28100       -0.10900
C         -3.57500        2.46600       -0.72400
C         -4.32400        3.63800       -0.64500
C         -5.54200        3.64600        0.03700
C         -6.33000        4.91500        0.17600
C         -6.01100        2.45400        0.60100
C         -5.25200        1.28000        0.52400
C         -1.08200       -0.95300       -0.62800
C          0.31700       -0.96500       -0.61400
H          2.93700        0.92900        0.53100
H          2.88500        0.11900       -1.04000
H          2.92600       -0.84100        0.46600
H          0.85400        1.86600        1.19800
H         -1.58900        1.87600        1.18100
H         -3.63100       -0.69600        0.28900
H         -2.63200        2.48300       -1.26500
H         -3.93800        4.54300       -1.10800
H         -5.82400        5.75400       -0.31400
H         -6.44400        5.16900        1.23400
H         -7.31700        4.80200       -0.28100
H         -6.96800        2.43600        1.12000
H         -5.63400        0.37500        0.98900
H         -1.61600       -1.73600       -1.16000
H          0.84600       -1.76500       -1.12600
