20
621-42-1.pdb
C          0.97000        0.13700        0.10000
C          2.45000        0.20500       -0.16100
O          2.89000        0.02000       -1.28600
N          3.18600        0.47000        0.98400
C          4.59100        0.59500        1.02100
C          5.35400        0.84400       -0.12400
C          6.74800        0.88700       -0.05800
C          7.39300        0.68000        1.15700
C          6.63200        0.46000        2.30100
O          7.22800        0.23100        3.50700
C          5.24000        0.44100        2.24900
H          0.47300       -0.27400       -0.78600
H          0.58400        1.14200        0.28800
H          0.75500       -0.51600        0.94900
H          2.71400        0.38100        1.87400
H          4.88500        1.01600       -1.08700
H          7.32000        1.07500       -0.96300
H          8.47700        0.69100        1.18800
H          8.18800        0.17300        3.36900
H          4.68400        0.25800        3.16300
