20
621-88-5.pdb
N          3.19500        0.10600       -1.32200
C          2.46100        0.18300       -0.17300
O          1.23600        0.10300       -0.20000
C          3.26000        0.34300        1.11900
O          4.64700        0.49000        0.82300
C          5.48500        0.66200        1.88900
C          5.24800        0.21600        3.18900
C          6.21200        0.41900        4.18300
C          7.40800        1.06800        3.88100
C          7.64700        1.51200        2.58300
C          6.69000        1.30100        1.59000
H          2.72200       -0.01000       -2.20600
H          4.20400        0.17900       -1.28900
H          3.07400       -0.55800        1.71200
H          2.89000        1.24000        1.63100
H          4.34200       -0.31100        3.46000
H          6.03200        0.06100        5.19400
H          8.15500        1.22200        4.65500
H          8.57800        2.01700        2.34100
H          6.88400        1.64400        0.57600
