19
621-59-0.pdb
C          1.02200        0.06100       -0.01700
O          2.44200        0.03400       -0.03100
C          3.09700        1.23700       -0.04400
C          2.47100        2.48800       -0.04300
C          3.23300        3.66100       -0.06500
C          4.62700        3.58300       -0.08800
C          5.42000        4.82800       -0.12000
O          6.64400        4.81700       -0.14300
C          5.26900        2.34300       -0.08400
C          4.50000        1.18000       -0.06100
O          5.11800       -0.04300       -0.05500
H          0.66600       -0.97300       -0.02800
H          0.62600        0.55800       -0.90800
H          0.64800        0.53300        0.89800
H          1.39100        2.58400       -0.02600
H          2.72600        4.62300       -0.06500
H          4.85400        5.77400       -0.12400
H          6.35400        2.29800       -0.10100
H          6.08000        0.08300       -0.04400
