20
621-34-1.pdb
C          2.51200       -1.55200        0.50600
C          2.15800       -0.09800        0.24400
O          2.99200        0.72000        1.06400
C          2.73100        2.06300        1.02600
C          2.20500        2.74700       -0.07300
C          1.99800        4.12900       -0.00700
C          2.31700        4.83300        1.15300
C          2.85400        4.14800        2.23700
O          3.18700        4.79800        3.39000
C          3.07200        2.77600        2.17700
H          1.88500       -2.21700       -0.09500
H          2.38100       -1.80100        1.56400
H          3.56200       -1.74100        0.26000
H          1.10400        0.07100        0.49300
H          2.33100        0.11100       -0.81700
H          1.96800        2.23700       -1.00000
H          1.59200        4.65400       -0.86600
H          2.14900        5.90500        1.18900
H          2.98000        5.74100        3.28600
H          3.49700        2.25600        3.03200
