21
621-36-3.pdb
C          2.54100       -0.13600        0.07200
C          1.04500       -0.01300        0.06900
C          0.42900        1.24000        0.00100
C         -0.96100        1.33800       -0.06600
C         -1.74700        0.18500       -0.08100
C         -1.14900       -1.08100       -0.02600
C         -1.98700       -2.33600       -0.12800
C         -2.47400       -2.97600        1.15500
O         -2.19200       -2.32900        2.30500
O         -3.10500       -4.02500        1.15500
C          0.24900       -1.16800        0.07400
H          3.02700        0.84500        0.10200
H          2.87200       -0.64600       -0.83900
H          2.87700       -0.70500        0.94500
H          1.02800        2.14900       -0.02100
H         -1.42900        2.31700       -0.13700
H         -2.82700        0.28700       -0.17200
H         -1.40400       -3.09400       -0.66500
H         -2.87100       -2.11800       -0.73900
H         -1.68300       -1.50500        2.19400
H          0.73100       -2.14400        0.11400
