19
621-37-4.pdb
O          3.13600        1.32600       -1.62000
C          2.45900        0.80000       -0.57400
O          1.30100        0.42300       -0.69200
C          3.18900        0.79900        0.75400
C          4.69200        0.64500        0.66700
C          5.27600       -0.62500        0.61400
C          6.65800       -0.76000        0.46600
C          7.46800        0.37000        0.35800
C          6.88700        1.63100        0.41300
O          7.63200        2.76500        0.29200
C          5.51400        1.77900        0.57600
H          4.05200        1.59600       -1.41400
H          2.78800       -0.02400        1.35800
H          2.93800        1.73000        1.27500
H          4.66100       -1.52200        0.68300
H          7.10400       -1.75300        0.42800
H          8.54000        0.24700        0.23200
H          8.56300        2.51500        0.17100
H          5.09200        2.78200        0.61100
