28
6214-18-2.pdb
C          3.09100       -1.18300        0.80200
C          2.56300       -0.06400       -0.09500
C          3.01700        1.29500        0.43800
C          2.99800       -0.28000       -1.55000
O          4.41600       -0.30000       -1.67600
S          4.99700       -0.54700       -3.18100
O          4.54800       -1.84700       -3.63100
O          4.72100        0.65200       -3.95100
C          6.75900       -0.65400       -2.98800
C          7.30000       -1.16900       -1.80800
C          8.68600       -1.25200       -1.67200
C          9.52000       -0.83100       -2.71100
C          8.97200       -0.30600       -3.88300
C          7.58800       -0.20400       -4.02000
H          2.74600       -1.05300        1.83300
H          4.18500       -1.20200        0.81100
H          2.73600       -2.15700        0.45100
H          1.46500       -0.08700       -0.06600
H          4.10800        1.38600        0.42600
H          2.67800        1.43900        1.47000
H          2.60000        2.10900       -0.16400
H          2.59300        0.51800       -2.18100
H          2.59800       -1.23600       -1.90400
H          6.65800       -1.50800       -0.99900
H          9.12100       -1.64700       -0.75700
H         10.60000       -0.90600       -2.60400
H          9.62600        0.02500       -4.68600
H          7.16600        0.22400       -4.92900
