12
62147-49-3.pdb
O          2.88400        0.05200        1.22500
C          2.41000        0.11000       -0.10700
C          2.94000        1.32100       -0.85900
O          2.20100        2.06100       -1.51500
C          4.44800        1.51800       -0.85900
O          4.83600        2.65800       -1.61600
H          2.27900       -0.52700        1.72100
H          1.31600        0.16000       -0.09200
H          2.71900       -0.79700       -0.63600
H          4.91700        0.63900       -1.30900
H          4.80500        1.64800        0.16500
H          4.03300        2.96400       -2.08500
