56
6217-54-5.pdb
C          8.66800       -6.44900       -3.09000
C          7.60600       -7.00700       -2.15800
C          7.75600       -6.50300       -0.75100
C          7.16700       -5.40300       -0.25100
C          6.32800       -4.42900       -1.03100
C          6.52800       -3.01600       -0.55800
C          7.48200       -2.16700       -0.97900
C          8.54700       -2.50500       -1.98400
C          9.38300       -1.30900       -2.35800
C          9.09000       -0.42100       -3.32000
C          7.83900       -0.42500       -4.14500
C          8.12400       -0.56100       -5.61500
C          7.32100       -0.08300       -6.57500
C          6.00200        0.58600       -6.31900
C          6.15000        2.06500       -6.11100
C          5.14900        2.86600       -5.71200
C          3.74000        2.41500       -5.47200
C          3.23400        2.84800       -4.12400
C          2.13600        3.59700       -3.93200
C          1.30600        4.09400       -5.08100
C          0.14900        5.00600       -4.71000
C         -0.50600        5.46100       -5.98700
O         -0.94600        6.73000       -5.92400
O         -0.64900        4.81200       -7.01000
H          8.40400       -6.66300       -4.13100
H          9.64500       -6.89900       -2.88800
H          8.76700       -5.36400       -2.99000
H          7.66000       -8.10200       -2.15200
H          6.61000       -6.76100       -2.54400
H          8.36500       -7.11300       -0.08500
H          7.31600       -5.17800        0.80400
H          5.27100       -4.69000       -0.91400
H          6.54200       -4.48700       -2.10400
H          5.81700       -2.66600        0.18800
H          7.49400       -1.16500       -0.55400
H          8.09900       -2.93900       -2.88500
H          9.21500       -3.26800       -1.56800
H         10.30200       -1.18300       -1.79200
H          9.78400        0.39800       -3.50000
H          7.32500        0.51900       -3.93500
H          7.15500       -1.22900       -3.85300
H          9.02900       -1.09100       -5.90700
H          7.59500       -0.21700       -7.61900
H          5.53000        0.13300       -5.43700
H          5.33500        0.39000       -7.16600
H          7.13000        2.50800       -6.28200
H          5.34800        3.92900       -5.59200
H          3.63200        1.32800       -5.53300
H          3.13600        2.81700       -6.29100
H          3.79300        2.49000       -3.25900
H          1.82800        3.83600       -2.91500
H          0.91000        3.22300       -5.62100
H          1.96100        4.64200       -5.77100
H          0.52000        5.87600       -4.15700
H         -0.59600        4.49000       -4.09700
H         -1.30400        6.89300       -6.82300
