20
622-47-9.pdb
C          2.56400       -0.09900       -0.00500
C          1.06800       -0.01300        0.00400
C          0.41400        1.22300        0.01200
C         -0.98500        1.29200        0.00800
C         -1.76000        0.12800       -0.00800
C         -3.27200        0.12500       -0.03600
C         -4.01000        1.46100        0.00900
O         -3.85500        2.21900       -0.99300
O         -4.74300        1.63800        1.02500
C         -1.09600       -1.10900       -0.01200
C          0.30000       -1.18000       -0.00600
H          3.02600        0.89300        0.01300
H          2.90600       -0.61200       -0.91000
H          2.91500       -0.65000        0.87300
H          0.97900        2.15100        0.01400
H         -1.46300        2.27000        0.00000
H         -3.62000       -0.48400        0.81000
H         -3.59700       -0.38600       -0.95200
H         -1.67700       -2.02800       -0.02500
H          0.78000       -2.15500       -0.01400
