17
622-79-7.pdb
N          3.91900       -2.91500       -3.37400
N          3.91600       -1.87700       -2.91100
N          3.90300       -0.74200       -2.39900
C          4.19500       -0.70100       -0.96400
C          5.66900       -0.55100       -0.69700
C          6.24200        0.72500       -0.61200
C          7.59600        0.87200       -0.31300
C          8.39200       -0.25400       -0.11200
C          7.83900       -1.52800       -0.22800
C          6.48400       -1.67800       -0.52900
H          3.82600       -1.60500       -0.46000
H          3.65000        0.14000       -0.51300
H          5.62600        1.61000       -0.75100
H          8.02500        1.86600       -0.22000
H          9.44200       -0.13800        0.14200
H          8.46000       -2.40600       -0.07100
H          6.06600       -2.68000       -0.60400
