17
622-46-8.pdb
N          1.18800       -0.17800        0.00800
C          2.52000        0.05400        0.12800
O          2.96100        1.14200        0.46300
O          3.23600       -1.09200       -0.18100
C          4.64400       -1.14000       -0.07600
C          5.36600       -0.43000        0.88100
C          6.75400       -0.56500        0.93500
C          7.41100       -1.42400        0.05300
C          6.68000       -2.15400       -0.88400
C          5.29300       -2.01600       -0.94900
H          0.54900        0.57400        0.21500
H          0.84600       -1.08100       -0.28200
H          4.87400        0.22900        1.59000
H          7.32200        0.00100        1.66900
H          8.49200       -1.52600        0.10100
H          7.19200       -2.83200       -1.56300
H          4.72400       -2.58800       -1.67600
