22
622-40-2.pdb
O          0.72800       -0.01800        0.92200
C          2.14900        0.11700        0.92000
C          2.76900       -1.17400        0.36800
N          4.24400       -1.20700        0.33200
C          4.84500       -0.16800       -0.53100
C          4.63200       -0.40400       -2.03500
O          5.13700       -1.68400       -2.43400
C          4.52400       -2.73400       -1.67500
C          4.71700       -2.52500       -0.16000
H          0.36400        0.83400        1.21900
H          2.48300        0.30800        1.94500
H          2.39400        0.97900        0.29400
H          2.32800       -1.37400       -0.61500
H          2.42000       -1.99300        1.01200
H          5.92700       -0.17400       -0.33500
H          4.50600        0.83300       -0.24800
H          5.17700        0.35500       -2.60600
H          3.57500       -0.32700       -2.31200
H          4.99400       -3.67400       -1.97800
H          3.46300       -2.80000       -1.94600
H          5.79000       -2.59200        0.06300
H          4.24000       -3.33900        0.39700
