25
622-26-4.pdb
O          2.39100        0.17500        1.14400
C          2.18900       -1.05000        0.45400
C          2.77200       -0.94100       -0.95200
C          4.31900       -0.91100       -1.01900
C          4.98800        0.27700       -0.30600
C          4.70200        1.60400       -0.99100
N          5.15800        1.51600       -2.41500
C          4.53300        0.40800       -3.19600
C          4.78600       -0.91900       -2.48900
H          2.00600        0.05600        2.03400
H          1.11000       -1.22700        0.39300
H          2.65000       -1.86800        1.01500
H          2.35500       -0.04900       -1.43300
H          2.42000       -1.80700       -1.52800
H          4.68400       -1.83400       -0.54800
H          6.07400        0.11200       -0.30300
H          4.70600        0.32700        0.74900
H          5.27000        2.41900       -0.53300
H          3.64100        1.86700       -1.00000
H          6.18200        1.41200       -2.43500
H          4.96100        2.41100       -2.88300
H          4.99300        0.42200       -4.18900
H          3.46900        0.63800       -3.29800
H          5.86100       -1.13800       -2.51800
H          4.29200       -1.72700       -3.04000
