30
6220-15-1.pdb
C          0.93900        0.09300        0.08400
C          2.45700        0.04500        0.01500
C          3.00400       -1.12800        0.82400
C          4.53100       -1.19800        0.77100
C          5.03200       -2.39200        1.58700
C          6.55300       -2.49300        1.56800
N          6.99600       -3.66200        2.37700
C          7.15900       -4.86800        1.77500
C          7.56600       -5.97500        2.51000
C          7.83100       -5.84000        3.86500
C          7.67400       -4.60000        4.46800
C          7.23900       -3.51900        3.69900
H          0.55900        0.94000       -0.49400
H          0.59700        0.20400        1.11800
H          0.49900       -0.82300       -0.32500
H          2.86700        0.98700        0.39800
H          2.76900       -0.04500       -1.03200
H          2.58100       -2.06300        0.43600
H          2.67800       -1.03800        1.86800
H          4.96300       -0.26800        1.15800
H          4.85800       -1.30100       -0.27100
H          4.58600       -3.30800        1.18200
H          4.68200       -2.30300        2.62400
H          7.01300       -1.59100        1.98800
H          6.94000       -2.63100        0.55100
H          6.94600       -4.93700        0.71400
H          7.66800       -6.94800        2.02800
H          8.15700       -6.69800        4.45400
H          7.87400       -4.47400        5.52700
H          7.07500       -2.54300        4.14800
