22
62285-58-9.pdb
C          2.61000        0.96300       -0.03500
C          1.25000        0.31900        0.00300
C          1.20400       -1.08900        0.01500
C         -0.00400       -1.77000        0.02300
C         -1.19800       -1.05900        0.02400
C         -1.19300        0.34800        0.02100
C         -2.52600        1.05100       -0.00900
C          0.03700        1.06000        0.02700
C          0.00400        2.57900       -0.06400
O          1.07100        3.23600        0.60100
H          3.40300        0.21500       -0.15400
H          2.81300        1.48700        0.90300
H          2.69100        1.65000       -0.88300
H          2.12700       -1.66600        0.00100
H         -0.01900       -2.85700        0.01900
H         -2.13500       -1.60700        0.01500
H         -3.35900        0.34100       -0.02000
H         -2.61000        1.66800       -0.91000
H         -2.64800        1.67500        0.88200
H         -0.90900        2.98100        0.38500
H          0.01800        2.87600       -1.11700
H          0.95800        3.04300        1.55000
