13
6228-73-5.pdb
N          1.11500        0.28200        0.01400
C          2.43100       -0.02500       -0.14900
O          2.81500       -1.18300       -0.22400
C          3.40200        1.09700       -0.24100
C          3.09900        2.52800        0.13300
C          3.25900        2.15400       -1.31200
H          0.46200       -0.48900        0.05800
H          0.76000        1.22400        0.02600
H          4.41700        0.76900       -0.03000
H          3.89500        3.09800        0.60100
H          2.11500        2.80500        0.48400
H          4.16200        2.46600       -1.82700
H          2.37600        2.14900       -1.93900
