18
623-04-1.pdb
N          2.34900       -0.02300       -0.17600
C          0.95800       -0.00500       -0.02100
C          0.25800        1.20300       -0.08400
C         -1.14000        1.22500       -0.05200
C         -1.86800        0.03200       -0.00400
C         -3.37200        0.04300        0.04500
O         -3.91800       -0.61900       -1.08700
C         -1.16800       -1.18200       -0.00600
C          0.23000       -1.19700       -0.03700
H          2.80600        0.82000        0.15800
H          2.78700       -0.86500        0.18400
H          0.80000        2.14300       -0.15200
H         -1.65100        2.18500       -0.07700
H         -3.76000        1.06600        0.05200
H         -3.72600       -0.45600        0.95300
H         -3.35400       -0.38900       -1.84800
H         -1.71200       -2.12400        0.00400
H          0.74700       -2.15200       -0.07000
