17
623-05-2.pdb
O          3.32000       -1.11100       -0.04000
C          2.49000        0.04200       -0.08200
C          2.88800        0.93200       -1.22800
C          3.42400        0.39400       -2.40900
C          3.75500        1.21700       -3.48500
C          3.53800        2.58600       -3.38500
O          3.83000        3.42500       -4.41900
C          3.00500        3.14200       -2.22800
C          2.67300        2.31600       -1.15300
H          3.01100       -1.64800        0.70800
H          2.59600        0.56800        0.87300
H          1.44900       -0.27400       -0.20700
H          3.59300       -0.67900       -2.48700
H          4.18100        0.77200       -4.37800
H          4.11100        2.88600       -5.17700
H          2.84500        4.21400       -2.16600
H          2.24700        2.76100       -0.25700
