18
623-81-4.pdb
C          1.12100        0.14400       -0.28700
C          2.62000       -0.01200       -0.10500
O          3.27100        1.07500       -0.75000
S          4.87900        1.06700       -0.61600
O          5.37900       -0.18200       -1.27200
O          5.19900        2.29600       -1.61100
C          4.71000        3.55700       -1.17400
C          5.15600        4.62800       -2.15100
H          0.58700       -0.67100        0.20800
H          0.85800        0.14400       -1.34900
H          0.77400        1.09700        0.12800
H          2.94000       -0.96300       -0.54300
H          2.85800       -0.00700        0.96600
H          5.09500        3.79000       -0.17400
H          3.61500        3.54400       -1.14200
H          6.24700        4.70700       -2.17000
H          4.73800        5.59900       -1.86900
H          4.83200        4.38500       -3.16800
