16
623-27-8.pdb
O          1.20200        0.48200        0.45400
C          2.19300        0.01900       -0.09700
C          2.89600        0.73700       -1.17900
C          2.43500        1.98700       -1.60600
C          3.09900        2.65600       -2.63700
C          4.21900        2.07100       -3.23700
C          4.91800        2.76600       -4.33600
O          4.55100        3.85600       -4.75500
C          4.68400        0.82300       -2.80700
C          4.02100        0.15400       -1.77400
H          2.60400       -0.96300        0.19200
H          1.56100        2.44000       -1.14200
H          2.74100        3.62800       -2.97000
H          5.79300        2.25100       -4.76800
H          5.55500        0.36300       -3.26800
H          4.38600       -0.81600       -1.44400
