15
623-50-7.pdb
C          2.77600        0.08100        1.53600
C          2.66400       -0.14700        0.03900
O          3.16800       -1.45900       -0.24400
C          4.50200       -1.53500       -0.50100
O          5.24800       -0.58800       -0.73100
C          4.96200       -2.98200       -0.43100
O          6.37000       -3.13000       -0.57000
H          2.39000        1.06300        1.81800
H          3.81800        0.00200        1.86200
H          2.21900       -0.69000        2.07700
H          3.18900        0.62900       -0.52800
H          1.61300       -0.12200       -0.26700
H          4.47400       -3.55600       -1.22400
H          4.68400       -3.38600        0.54800
H          6.67200       -2.39100       -1.13200
