17
623-39-2.pdb
C          1.04900       -0.05400        0.01400
O          2.47000       -0.09300       -0.03100
C          2.94000       -1.11500       -0.91400
C          4.47700       -1.09500       -0.96900
O          5.06500       -1.40200        0.30200
C          4.99000       -2.10600       -2.00000
O          6.41000       -2.05900       -2.12600
H          0.74600        0.71300        0.73000
H          0.64800       -1.01700        0.34300
H          0.64400        0.20600       -0.96900
H          2.53000       -0.93800       -1.91500
H          2.59100       -2.08400       -0.54300
H          4.82400       -0.08800       -1.22600
H          4.61300       -2.18200        0.66200
H          4.56500       -1.90500       -2.98800
H          4.72200       -3.12500       -1.70300
H          6.73800       -1.37100       -1.51900
