18
623-17-6.pdb
C          1.17200        0.46800        0.95500
C          2.66700        0.54900        0.91900
O          3.28400        1.60200        0.82800
O          3.21200       -0.68900        0.99700
C          4.64400       -0.73900        0.97300
C          5.08300       -1.36600        2.24300
O          5.23800       -2.72200        2.24300
C          5.66600       -3.07100        3.48400
C          5.78800       -1.95800        4.28200
C          5.40800       -0.85500        3.48200
H          0.76000        1.47900        0.89700
H          0.84600        0.01400        1.89500
H          0.80800       -0.10600        0.09900
H          5.11600        0.24300        0.86300
H          4.94700       -1.34800        0.11500
H          5.83900       -4.12700        3.63800
H          6.11500       -1.94500        5.31200
H          5.38200        0.18900        3.76500
