20
624-24-8.pdb
C          0.95200       -0.05600       -0.06400
C          2.47500       -0.03000       -0.07500
C          2.98700        1.26400       -0.69900
C          4.51300        1.33800       -0.73400
C          4.96600        2.63800       -1.36100
O          4.22300        3.51400       -1.78300
O          6.32800        2.69500       -1.38800
C          6.83000        3.90100       -1.97000
H          0.58800       -0.98500        0.38400
H          0.55300        0.01100       -1.08200
H          0.55100        0.78100        0.51500
H          2.84700       -0.89300       -0.63900
H          2.84500       -0.12500        0.95200
H          2.59500        2.12100       -0.13500
H          2.59500        1.35700       -1.72000
H          4.91500        0.50700       -1.32500
H          4.91500        1.28300        0.28400
H          7.92400        3.86100       -1.95000
H          6.50500        4.77000       -1.38900
H          6.50500        3.98800       -3.01100
