34
62497-65-8.pdb
O          1.93500       -0.67000       -1.20500
N          2.58100       -0.12700       -0.29700
O          2.61100        1.09400       -0.08800
C          3.36800       -0.99400        0.59400
C          3.36400       -2.38400        0.39700
C          4.13300       -3.20600        1.23300
C          4.90200       -2.64100        2.26000
C          4.89800       -1.24900        2.44500
C          4.12900       -0.42200        1.61900
C          5.78700       -3.45800        3.13600
O          6.80500       -2.96000        3.60200
N          5.38100       -4.75000        3.41000
C          6.15400       -5.56800        4.33700
C          5.55300       -6.96300        4.51700
C          6.34300       -7.87500        5.42700
C          6.58700       -7.53600        6.76600
C          7.26600       -8.41800        7.61200
C          7.70500       -9.65000        7.13200
C          7.47200       -9.99800        5.80500
C          6.79500       -9.11800        4.95800
H          2.78700       -2.83500       -0.40800
H          4.15400       -4.27600        1.04400
H          5.50500       -0.80400        3.23300
H          4.14800        0.65400        1.78200
H          4.42700       -5.01600        3.20700
H          6.19700       -5.03100        5.29200
H          7.17900       -5.63300        3.95400
H          5.44700       -7.43000        3.52900
H          4.53400       -6.88000        4.91800
H          6.24000       -6.58800        7.17100
H          7.44500       -8.14700        8.64900
H          8.22400      -10.33900        7.79300
H          7.81000      -10.96100        5.42900
H          6.61600       -9.41600        3.92700
