24
625-06-9.pdb
C          0.83500        0.13000       -0.19600
C          2.35900       -0.02100       -0.10600
C          2.83500       -0.88500       -1.27600
C          3.02100        1.37700       -0.03500
C          4.57100        1.44300        0.02400
C          5.03500        2.90800        0.09400
C          5.16700        0.65900        1.19100
O          5.12600        0.89500       -1.17100
H          0.34600       -0.84800       -0.20000
H          0.54000        0.65800       -1.11100
H          0.44600        0.68900        0.66200
H          2.56900       -0.56100        0.82500
H          2.84100       -0.31900       -2.21300
H          2.18300       -1.75400       -1.41500
H          3.84200       -1.27400       -1.09400
H          2.61200        1.90200        0.84100
H          2.68700        1.94900       -0.91500
H          4.65600        3.42200        0.98300
H          4.70800        3.46200       -0.79300
H          6.12900        2.96100        0.10200
H          5.02000        1.16300        2.15100
H          6.24400        0.51400        1.03900
H          4.74300       -0.34600        1.26200
H          4.77200        1.39300       -1.92200
