13
625-51-4.pdb
C          1.17000        0.16200        0.04100
C          2.67000        0.07900       -0.02500
O          3.26500       -0.45700       -0.95200
N          3.29800        0.68500        1.03700
C          4.71100        0.57900        1.17300
O          5.04300        1.38100        2.27900
H          0.73500       -0.40400       -0.78700
H          0.85800        1.20600       -0.03900
H          0.80900       -0.26300        0.98200
H          2.77800        0.82400        1.89100
H          5.21700        0.93700        0.27100
H          4.98800       -0.46100        1.36800
H          4.86700        2.29300        1.99500
