19
625-69-4.pdb
C          2.85300       -0.73700        1.40800
C          2.48500       -0.07400        0.08800
O          1.06300        0.02500        0.00900
C          3.08200        1.32600       -0.07600
C          4.61100        1.39200       -0.04600
C          5.28100        0.57400       -1.14200
O          5.00700        2.75700       -0.18900
H          2.35500       -1.70900        1.49700
H          2.51700       -0.13200        2.25700
H          3.93100       -0.89800        1.49600
H          2.79700       -0.71600       -0.74200
H          0.75500        0.56300        0.75900
H          2.68000        1.99000        0.70200
H          2.71100        1.76700       -1.01200
H          4.98500        1.06600        0.92900
H          4.88200        0.83600       -2.12800
H          5.14300       -0.50000       -0.98400
H          6.35600        0.78200       -1.17100
H          4.75600        3.05200       -1.08200
