16
625-82-1.pdb
C          2.53500        0.56900        0.00800
C          1.09800        0.19700        0.00000
N          0.68200       -1.11100        0.00000
C         -0.68600       -1.15800        0.00100
C         -1.17000        0.13400       -0.00400
C         -2.59300        0.55700       -0.00600
C         -0.03300        0.98900       -0.00500
H          3.18100       -0.31500        0.00100
H          2.77100        1.15400        0.90200
H          2.77700        1.17200       -0.87300
H          1.29100       -1.91800        0.00200
H         -1.20100       -2.11000        0.00400
H         -3.26400       -0.30800        0.02000
H         -2.81800        1.13400       -0.90900
H         -2.80800        1.18000        0.86700
H         -0.04100        2.07200       -0.00800
