14
625-52-5.pdb
C          1.14600       -0.08700        0.05600
C          2.66400       -0.02800        0.02000
N          3.26200       -1.27600        0.44300
C          3.50100       -1.55200        1.75400
N          3.97500       -2.80700        1.94700
O          3.34100       -0.77800        2.68800
H          0.72100        0.85800       -0.29700
H          0.77900       -0.27000        1.07100
H          0.77100       -0.89100       -0.58500
H          3.02200        0.78200        0.66400
H          3.00800        0.16400       -1.00000
H          3.30000       -2.03700       -0.21500
H          4.30900       -3.38000        1.19000
H          4.27700       -3.03200        2.88700
