18
625-08-1.pdb
C          1.12600       -0.05100        0.07300
C          2.65200        0.08900        0.00900
C          3.02600        1.53600       -0.31700
O          3.20600       -0.22400        1.29800
C          3.21600       -0.92600       -0.99500
C          4.71900       -0.91900       -1.17100
O          5.42100       -0.58900       -0.06400
O          5.26600       -1.26100       -2.20700
H          0.70000        0.60000        0.84400
H          0.83600       -1.07500        0.33500
H          0.66200        0.20500       -0.88600
H          2.63000        2.21400        0.44800
H          2.63500        1.84400       -1.29200
H          4.11000        1.68500       -0.31400
H          2.62800        0.17900        1.97600
H          2.77300       -0.74400       -1.98200
H          2.95500       -1.94500       -0.68300
H          4.82800       -0.42100        0.70900
