13
626-99-3.pdb
O          1.18100       -0.00500        0.00400
C          2.52400       -0.10700        0.05900
O          3.10000       -1.05200        0.56900
C          3.19600        1.05100       -0.56700
C          4.53600        1.09200       -0.58900
C          5.28600        2.17800       -1.17500
C          6.62400        2.20400       -1.18900
H          0.83500        0.79500       -0.42800
H          2.59700        1.84300       -0.99400
H          5.10900        0.27500       -0.14800
H          4.73900        3.00600       -1.62200
H          7.22200        1.40600       -0.75900
H          7.15800        3.03600       -1.63800
