26
626-86-8.pdb
C          2.55200       -0.80200       -2.15200
C          2.55100       -0.22300       -0.74700
O          3.05600        1.11700       -0.83700
C          4.41500        1.20900       -0.79100
O          5.16500        0.35000       -0.35000
C          4.85900        2.47300       -1.48800
C          6.38600        2.55000       -1.55400
C          6.87900        3.80000       -2.28500
C          8.41000        3.84900       -2.31600
C          8.94600        5.07900       -3.02600
O         10.29600        5.12000       -3.04800
O          8.25700        5.95100       -3.53100
H          2.17200       -1.82400       -2.16100
H          3.56400       -0.79500       -2.57200
H          1.93800       -0.18400       -2.81600
H          3.13900       -0.84200       -0.06100
H          1.53000       -0.17900       -0.35500
H          4.45000        3.33800       -0.95700
H          4.45200        2.44900       -2.50700
H          6.77300        1.65500       -2.06000
H          6.79100        2.53200       -0.53400
H          6.48500        4.69400       -1.78700
H          6.48300        3.80800       -3.30800
H          8.79400        2.96500       -2.83700
H          8.79600        3.85600       -1.29200
H         10.73600        4.36900       -2.61300
