16
626-35-7.pdb
C          2.44500        1.63400       -1.60400
C          2.48000        0.64300       -0.45400
O          3.01700        1.30800        0.70000
C          4.37500        1.32200        0.79300
O          5.13200        0.62200        0.13400
C          4.82300        2.35500        1.76900
N          4.95600        3.59400        0.97100
O          6.07300        3.85500        0.50500
O          3.94500        4.29700        0.84000
H          2.01300        1.18400       -2.50100
H          3.45100        1.99500       -1.84000
H          1.85400        2.51400       -1.32800
H          3.05400       -0.25500       -0.71000
H          1.46400        0.32200       -0.20600
H          5.79200        2.09700        2.20200
H          4.09400        2.51600        2.56700
