30
626-13-1.pdb
C          2.12400        0.21000       -1.32700
C          0.80300        0.14200       -0.62000
C          0.27400        1.26500        0.02400
C         -0.96200        1.19000        0.66400
C         -1.68600       -0.00300        0.64800
C         -1.19100       -1.13000       -0.01700
N         -1.89500       -2.35400       -0.05500
C         -3.29300       -2.53200       -0.13900
C         -3.89300       -3.67300        0.40500
C         -5.27000       -3.88100        0.28500
C         -6.06300       -2.96000       -0.40000
C         -5.48400       -1.82500       -0.97100
C         -6.30400       -0.83000       -1.73700
C         -4.10300       -1.62600       -0.83900
C          0.07200       -1.05600       -0.61800
H          2.57100        1.20600       -1.24700
H          1.99200       -0.01300       -2.39100
H          2.82400       -0.51000       -0.89100
H          0.81900        2.20600        0.03100
H         -1.36600        2.06100        1.17200
H         -2.64400       -0.04600        1.16100
H         -1.42900       -3.06000        0.50400
H         -3.29600       -4.41000        0.93500
H         -5.72300       -4.76800        0.71900
H         -7.13100       -3.14100       -0.49200
H         -7.36300       -1.10800       -1.75200
H         -5.95600       -0.77400       -2.77300
H         -6.22300        0.16000       -1.27700
H         -3.64800       -0.75700       -1.31200
H          0.47100       -1.93100       -1.12600
