14
6261-22-9.pdb
C          1.04600        0.07100       -0.03000
C          2.56500        0.08200       -0.03700
C          3.07100        1.31900       -0.76000
C          3.50600        2.38000       -1.38100
C          4.01300        3.61700       -2.10400
O          2.92100        4.45200       -2.45200
H          0.67000       -0.81700        0.48900
H          0.64800        0.06400       -1.05100
H          0.64800        0.95700        0.47600
H          2.94600       -0.81200       -0.54100
H          2.94600        0.08300        0.99000
H          4.54700        3.33100       -3.01500
H          4.69100        4.17800       -1.45600
H          2.30200        3.89600       -2.95700
