32
6261-32-1.pdb
O         -1.25100       -2.04100        0.33700
C         -0.98100       -0.86500        0.12300
C         -2.02200        0.20200       -0.00500
C         -1.60400        1.53400        0.55100
C         -0.31000        2.00500       -0.10700
C          0.76500        0.95000       -0.04700
C          2.11300        1.32400       -0.13700
C          3.12100        0.35600       -0.11600
C          2.79100       -0.99400       -0.01800
C          1.45300       -1.38000        0.06100
C          0.43700       -0.41400        0.04600
C         -3.23200       -0.00200       -0.56300
C         -3.71300       -1.24900       -1.16400
C         -4.37700       -2.20100       -0.38300
C         -4.80600       -3.40200       -0.95200
C         -4.58700       -3.65100       -2.30600
C         -3.94700       -2.69600       -3.09500
C         -3.50900       -1.49800       -2.52600
H         -1.45900        1.43400        1.63500
H         -2.38100        2.29500        0.40700
H          0.03100        2.91500        0.40100
H         -0.49100        2.25800       -1.15900
H          2.39100        2.37300       -0.22000
H          4.16400        0.65600       -0.18000
H          3.57300       -1.74900       -0.00800
H          1.20000       -2.43600        0.13100
H         -3.94800        0.81500       -0.62400
H         -4.54000       -2.02500        0.67700
H         -5.29500       -4.14900       -0.33300
H         -4.90700       -4.59300       -2.74400
H         -3.77800       -2.88900       -4.15100
H         -3.00000       -0.76800       -3.14900
