35
6263-83-8.pdb
O          1.04600        0.03800       -0.06900
C          2.27100       -0.04500       -0.01500
C          3.00500       -1.36900       -0.15900
C          2.03600       -2.54300       -0.27800
C          2.77400       -3.87300       -0.42600
C          1.80300       -5.03700       -0.54000
O          0.58400       -4.87900       -0.52100
C          2.34900       -6.42000       -0.67200
C          3.72200       -6.68500       -0.75300
C          4.17500       -8.00200       -0.86800
C          3.26300       -9.05700       -0.90300
C          1.89600       -8.80100       -0.82700
C          1.44100       -7.48700       -0.71400
C          3.07400        1.19600        0.20100
C          2.39100        2.40100        0.41200
C          3.09800        3.58400        0.63800
C          4.49100        3.56900        0.65200
C          5.17800        2.37600        0.43400
C          4.47400        1.19000        0.20700
H          3.64000       -1.51600        0.72200
H          3.63200       -1.32300       -1.05700
H          1.37400       -2.39000       -1.14000
H          1.38800       -2.57600        0.60800
H          3.41300       -4.03300        0.45000
H          3.39500       -3.84300       -1.32900
H          4.45900       -5.88900       -0.73000
H          5.24100       -8.20700       -0.93000
H          3.61800      -10.08200       -0.99000
H          1.18200       -9.62000       -0.85600
H          0.37000       -7.29800       -0.65600
H          1.30200        2.42500        0.40400
H          2.56000        4.51300        0.80400
H          5.04100        4.48900        0.83300
H          6.26600        2.36800        0.44200
H          5.04300        0.28100        0.03800
