13
627-27-0.pdb
O          0.90600       -0.00400       -0.05100
C          2.32900       -0.01400       -0.07400
C          2.85600        1.04800        0.88800
C          4.35700        1.09100        0.91700
C          5.07900        2.17200        0.59400
H          0.60700       -0.67800       -0.68500
H          2.66100        0.18700       -1.09800
H          2.67100       -1.01200        0.21800
H          2.48400        0.84000        1.89900
H          2.43600        2.02400        0.61400
H          4.87200        0.18800        1.23700
H          4.60700        3.09900        0.28200
H          6.16300        2.15300        0.64300
