17
627-06-5.pdb
C          3.05500       -1.09100        0.98200
C          2.60900       -0.05100       -0.03700
C          3.07400        1.36200        0.31100
N          4.51800        1.48000        0.36900
C          5.27000        1.72200       -0.73500
N          6.60200        1.69300       -0.48000
O          4.84100        1.94300       -1.85900
H          2.65600       -2.07500        0.71500
H          2.69400       -0.83800        1.98400
H          4.14500       -1.17200        1.01800
H          1.51400       -0.05600       -0.09000
H          2.98100       -0.33700       -1.02800
H          2.68800        1.66100        1.29300
H          2.69300        2.06600       -0.43200
H          4.98800        1.17100        1.20700
H          6.97900        1.64500        0.45000
H          7.21600        1.94400       -1.24200
