23
6277-38-9.pdb
C          1.04800        0.20300       -0.41000
O          2.37900        0.07200        0.08200
C          3.06200       -1.05300       -0.29000
C          2.75900       -1.80900       -1.42300
C          3.53900       -2.91900       -1.76500
C          4.65700       -3.28100       -1.00000
C          4.98200       -2.54000        0.13600
C          4.16800       -1.44500        0.47700
N          4.47100       -0.74200        1.71000
O          3.63300       -0.80000        2.61700
O          5.58700       -0.20700        1.78400
C          5.42300       -4.48200       -1.43100
C          6.89700       -4.57600       -1.15500
O          4.83100       -5.37600       -2.03500
H          0.61000        1.10000        0.03800
H          0.43800       -0.65700       -0.11400
H          1.03400        0.34200       -1.49600
H          1.92600       -1.56200       -2.07400
H          3.27300       -3.50100       -2.64700
H          5.82000       -2.81100        0.77100
H          7.30900       -3.64800       -0.75300
H          7.41100       -4.78000       -2.09900
H          7.08200       -5.39100       -0.45100
