26
6278-73-5.pdb
N          2.36000       -0.02000       -0.19700
C          0.97300       -0.00100       -0.02300
C          0.27700        1.20700       -0.07200
C         -1.12300        1.23100       -0.03400
C         -1.86400        0.04100        0.00800
C         -1.15800       -1.17100        0.01300
C          0.24200       -1.19000       -0.03000
C         -3.33600        0.02200        0.04800
S         -4.26000        1.27400       -0.69200
C         -5.71600        0.51800       -0.18600
C         -7.04300        0.93800       -0.37600
C         -8.06800        0.14500        0.14600
C         -7.78100       -1.03200        0.83000
C         -6.45500       -1.44400        1.00700
C         -5.40200       -0.65800        0.49400
N         -4.05000       -0.93900        0.60100
H          2.82600        0.82200        0.12700
H          2.80500       -0.86300        0.15400
H          0.81700        2.14700       -0.13800
H         -1.61600        2.20000       -0.03700
H         -1.69900       -2.11500        0.03300
H          0.75500       -2.14700       -0.06600
H         -7.26600        1.85700       -0.91000
H         -9.10300        0.45500        0.01500
H         -8.59000       -1.63700        1.23200
H         -6.22700       -2.36100        1.54000
