56
628-97-7.pdb
C          0.89400        0.06900        0.04100
C          2.41100        0.06200        0.03700
C          2.93600       -1.35900        0.19600
C          4.45700       -1.37000        0.19200
C          4.97100       -2.79200        0.34900
C          6.49000       -2.80000        0.34600
C          7.00300       -4.22100        0.50100
C          8.52100       -4.22900        0.49900
C          9.03500       -5.65000        0.65200
C         10.55400       -5.66100        0.65400
C         11.06800       -7.08500        0.80700
C         12.58900       -7.10400        0.80900
C         13.11000       -8.53000        0.96200
C         14.63200       -8.53800        0.96400
C         15.20500       -9.94900        1.12200
C         16.71900       -9.88800        1.12700
O         17.37300       -8.87100        0.98800
O         17.23800      -11.14800        1.20900
C         18.52800      -11.27000        0.59100
C         18.32800      -11.49200       -0.89700
H          0.51900        1.08900       -0.07300
H          0.50700       -0.33900        0.98100
H          0.50300       -0.53800       -0.78200
H          2.78300        0.69100        0.85400
H          2.77900        0.49300       -0.90100
H          2.56100       -1.98900       -0.61900
H          2.56800       -1.79000        1.13500
H          4.83900       -0.74600        1.00900
H          4.83200       -0.94200       -0.74600
H          4.59400       -3.41900       -0.46900
H          4.59900       -3.22300        1.28600
H          6.86800       -2.17600        1.16400
H          6.86400       -2.36900       -0.59100
H          6.62500       -4.84500       -0.31900
H          6.62800       -4.65300        1.43700
H          8.89800       -3.60600        1.32000
H          8.89500       -3.79500       -0.43600
H          8.65700       -6.27300       -0.16900
H          8.65700       -6.08400        1.58700
H         10.92900       -5.03700        1.47400
H         10.92900       -5.22600       -0.28100
H         10.68900       -7.70500       -0.01500
H         10.68900       -7.51600        1.74100
H         12.96400       -6.47800        1.62900
H         12.96400       -6.66700       -0.12600
H         12.73200       -9.15000        0.14000
H         12.73200       -8.96000        1.89700
H         14.99800       -7.90300        1.77900
H         14.99900       -8.09200        0.03100
H         14.87300      -10.57600        0.28800
H         14.86900      -10.38800        2.06400
H         19.05900      -12.12300        1.02100
H         19.13600      -10.37000        0.75600
H         17.73400      -12.39500       -1.08000
H         19.29100      -11.59400       -1.40600
H         17.78300      -10.65400       -1.34500
