23
628-63-7.pdb
C          0.90800       -0.04700        0.03900
C          2.42800       -0.03600        0.04700
C          2.97200        1.22900        0.71000
C          4.50000        1.24400        0.72000
C          5.04900        2.49700        1.39700
O          6.48800        2.50200        1.35700
C          7.09800        1.81400        2.35700
C          8.59300        1.89800        2.25600
O          6.52600        1.19200        3.24200
H          0.53700       -0.95900       -0.43900
H          0.51300        0.81200       -0.51300
H          0.51100       -0.01200        1.05900
H          2.79500       -0.10400       -0.98400
H          2.79200       -0.92200        0.57900
H          2.59800        1.29200        1.74000
H          2.59900        2.11300        0.17800
H          4.88700        1.18700       -0.30500
H          4.87700        0.35100        1.23200
H          4.68600        2.59400        2.42600
H          4.71200        3.39100        0.85800
H          8.90100        2.54300        1.42700
H          8.99800        0.89800        2.08900
H          8.98800        2.31800        3.18200
