23
6283-74-5.pdb
C          1.15900        1.87500        0.02400
C          2.64700        1.85400        0.17600
O          3.28200        2.57200        0.93300
O          3.20600        0.96800       -0.69200
C          4.62900        0.97400       -0.67300
C          5.23500        2.08800       -1.49900
O          4.45100        2.35700       -2.67300
C          3.94200        3.61400       -2.76900
C          3.08400        3.76000       -3.98900
O          4.10300        4.50000       -1.94500
C          6.52300        1.45600       -1.93900
O          7.50700        2.05100       -2.34900
O          6.41900        0.10400       -1.89100
C          5.23500       -0.23800       -1.32400
O          4.79300       -1.37500       -1.29300
H          0.71000        2.30700        0.92200
H          0.77600        0.85600       -0.08700
H          0.89000        2.47800       -0.84700
H          5.01800        0.97100        0.35600
H          5.44400        2.96700       -0.88100
H          3.29300        2.96600       -4.71200
H          3.30100        4.71800       -4.46700
H          2.03300        3.71300       -3.69500
