30
6284-40-8.pdb
C          4.63100       -2.85300        0.23300
N          4.37900       -1.45100       -0.06000
C          4.82600       -0.60600        1.05400
C          4.45400        0.87100        0.81600
O          3.01600        0.98200        0.76500
C          4.95700        1.78300        1.96100
O          4.36100        1.29500        3.17300
C          6.50300        1.86900        2.01300
O          7.03100        2.38400        0.78800
C          7.01400        2.69600        3.20600
O          6.60100        2.05000        4.41800
C          8.54700        2.83000        3.18600
O          8.96700        3.52200        4.36400
H          4.27500       -3.47100       -0.59700
H          4.11400       -3.17600        1.14300
H          5.70400       -3.03900        0.34900
H          3.37800       -1.28600       -0.19600
H          5.91000       -0.71500        1.15900
H          4.34900       -0.95500        1.97800
H          4.84000        1.22200       -0.14900
H          2.72600        0.90700        1.69600
H          4.54600        2.78900        1.80400
H          5.02900        1.37400        3.89000
H          6.90600        0.86100        2.15300
H          6.52600        3.17700        0.53700
H          6.57700        3.69700        3.20100
H          7.39300        2.01100        4.99600
H          8.91100        3.36900        2.30700
H          9.01700        1.84300        3.21600
H          8.62200        4.43300        4.31200
