28
6289-46-9.pdb
C          1.12000        2.05300       -0.15600
O          2.54300        1.94900       -0.25000
C          2.96600        0.83600       -0.90600
O          2.22600       -0.01400       -1.38300
C          4.47200        0.77800       -0.95900
C          5.06500        1.98200       -1.68000
C          4.87800        1.85800       -3.18000
O          4.38000        2.77500       -3.83300
C          5.34300        0.58000       -3.84400
C          4.73800       -0.61600       -3.12300
C          4.95800       -0.48900       -1.62900
O          5.51600       -1.38000       -0.99100
C          6.84700        0.48800       -3.90000
O          7.60700        1.31400       -3.41100
O          7.24000       -0.63100       -4.56600
C          8.65800       -0.78800       -4.64400
H          0.87800        2.98900        0.35200
H          0.72100        1.22100        0.43300
H          0.66900        2.07200       -1.15400
H          4.82900        0.76100        0.07900
H          6.13900        2.05700       -1.47700
H          4.61300        2.92300       -1.34600
H          4.98400        0.60100       -4.88100
H          5.16600       -1.56400       -3.46300
H          3.66000       -0.67100       -3.31200
H          8.86800       -1.75500       -5.11100
H          9.10700       -0.78200       -3.64600
H          9.08800        0.00200       -5.26800
