68
629-97-0.pdb
C          0.97800        0.00800        0.06300
C          2.49700       -0.00300        0.05700
C          3.03300       -1.35500       -0.40200
C          4.55800       -1.36700       -0.40900
C          5.08400       -2.72300       -0.86800
C          6.60700       -2.73600       -0.87700
C          7.12700       -4.09100       -1.33900
C          8.65000       -4.10200       -1.34600
C          9.16800       -5.45700       -1.80600
C         10.69000       -5.46600       -1.81300
C         11.20800       -6.82000       -2.27500
C         12.72700       -6.83100       -2.27800
C         13.24600       -8.18700       -2.74300
C         14.76500       -8.19700       -2.74500
C         15.28400       -9.55100       -3.20800
C         16.80600       -9.56400       -3.21100
C         17.32500      -10.91800       -3.67500
C         18.84900      -10.93400       -3.67800
C         19.37400      -12.28700       -4.14300
C         20.90000      -12.30000       -4.14600
C         21.43600      -13.65000       -4.61200
C         22.95500      -13.66300       -4.61400
H          0.60600        0.98300        0.39400
H          0.58400       -0.75500        0.74100
H          0.58200       -0.18500       -0.93900
H          2.86500        0.22100        1.06500
H          2.86300        0.78800       -0.60600
H          2.65900       -1.57900       -1.40800
H          2.66300       -2.14500        0.26300
H          4.93600       -1.14600        0.59700
H          4.93300       -0.58100       -1.07600
H          4.70700       -2.94500       -1.87400
H          4.71200       -3.51000       -0.20200
H          6.98700       -2.51700        0.12800
H          6.98200       -1.94900       -1.54300
H          6.75100       -4.31100       -2.34500
H          6.75400       -4.87900       -0.67400
H          9.02800       -3.88200       -0.34000
H          9.02400       -3.31600       -2.01300
H          8.79100       -5.67700       -2.81300
H          8.79400       -6.24400       -1.14100
H         11.06700       -5.24900       -0.80600
H         11.06400       -4.67900       -2.47700
H         10.83100       -7.03700       -3.28200
H         10.83100       -7.60900       -1.61200
H         13.10500       -6.61500       -1.27100
H         13.10600       -6.04500       -2.94200
H         12.86900       -8.40000       -3.75000
H         12.86800       -8.97500       -2.08000
H         15.14000       -7.98100       -1.73700
H         15.14200       -7.40800       -3.40700
H         14.90800       -9.76600       -4.21600
H         14.90600      -10.33800       -2.54600
H         17.18000       -9.34700       -2.20400
H         17.18200       -8.77500       -3.87400
H         16.94900      -11.13300       -4.68300
H         16.94700      -11.70600       -3.01300
H         19.22100      -10.71700       -2.66900
H         19.22400      -10.14200       -4.33900
H         18.99900      -12.50200       -5.15100
H         18.99700      -13.07600       -3.48200
H         21.27100      -12.08200       -3.13700
H         21.27300      -11.50700       -4.80500
H         21.06900      -13.86900       -5.62100
H         21.06700      -14.44500       -3.95300
H         23.35000      -12.89600       -5.28800
H         23.32600      -14.63700       -4.95000
H         23.34900      -13.47500       -3.61100
