65
629-94-7.pdb
C          0.94400        0.02800        0.07100
C          2.46100        0.02600        0.07700
C          2.98700        0.66700        1.35400
C          4.50600        0.67000        1.36500
C          5.01900        1.31000        2.64300
C          6.53800        1.31000        2.65100
C          7.04900        1.94900        3.92900
C          8.56600        1.95200        3.93500
C          9.07600        2.59100        5.21300
C         10.59300        2.59400        5.21800
C         11.10300        3.23400        6.49400
C         12.62000        3.23700        6.49900
C         13.13100        3.87800        7.77600
C         14.64700        3.88000        7.77900
C         15.16300        4.51900        9.05600
C         16.67600        4.52300        9.06100
C         17.19100        5.16400       10.33700
C         18.70800        5.16700       10.34400
C         19.22500        5.80900       11.62200
C         20.74800        5.81700       11.63900
C         21.25800        6.45800       12.91500
H          0.56900       -0.43300       -0.84600
H          0.55800        1.05000        0.12700
H          0.55400       -0.53500        0.92500
H          2.83400        0.57500       -0.79500
H          2.82900       -1.00300       -0.00200
H          2.61300        0.12000        2.22900
H          2.61500        1.69700        1.43600
H          4.88600        1.22200        0.49600
H          4.88300       -0.35700        1.28700
H          4.64300        0.76100        3.51500
H          4.64700        2.33900        2.72400
H          6.91700        1.85900        1.78000
H          6.91100        0.28100        2.57300
H          6.67200        1.40000        4.79900
H          6.67300        2.98000        4.00600
H          8.94300        2.50300        3.06500
H          8.94100        0.92400        3.85600
H          8.70000        2.03900        6.08400
H          8.70000        3.61800        5.29300
H         10.96900        3.14400        4.34700
H         10.96900        1.56600        5.13900
H         10.72800        2.68300        7.36500
H         10.72700        4.26200        6.57300
H         12.99600        3.78800        5.62800
H         12.99600        2.20900        6.42000
H         12.75500        3.32700        8.64700
H         12.75500        4.90500        7.85400
H         15.02300        4.43000        6.90800
H         15.02300        2.85200        7.70000
H         14.78300        3.96900        9.92800
H         14.78500        5.55100        9.13400
H         17.05300        5.07400        8.18900
H         17.05300        3.49500        8.98200
H         16.81200        4.61300       11.20900
H         16.81200        6.19100       10.41600
H         19.08200        5.71800        9.47200
H         19.08200        4.13900       10.26400
H         18.84500        5.25800       12.49100
H         18.84500        6.83500       11.69900
H         21.12700        6.37000       10.77200
H         21.12700        4.79200       11.56400
H         20.90700        7.49200       12.99700
H         22.35100        6.46300       12.92600
H         20.90700        5.90600       13.79300
