28
629-41-4.pdb
O          0.97500       -0.04500        0.10000
C          2.39300       -0.04200        0.06300
C          2.91800       -0.06000        1.48900
C          4.44100       -0.05900        1.51500
C          4.96600       -0.07900        2.94800
C          6.49200       -0.07900        2.96600
C          7.01700       -0.09800        4.39900
C          8.54100       -0.09900        4.42600
C          9.06500       -0.11700        5.85500
O         10.48500       -0.11800        5.84700
H          0.67000       -0.03000       -0.82300
H          2.72900        0.85700       -0.46400
H          2.73300       -0.92600       -0.48800
H          2.52700       -0.94200        2.01200
H          2.52600        0.80900        2.03400
H          4.81800        0.83200        0.99800
H          4.82000       -0.93300        0.97300
H          4.59000       -0.96900        3.46700
H          4.59000        0.79600        3.49200
H          6.86800        0.81000        2.44600
H          6.86800       -0.95500        2.42300
H          6.63800       -0.98700        4.91800
H          6.63900        0.77800        4.94000
H          8.93300        0.78300        3.90400
H          8.93000       -0.96800        3.88000
H          8.71800       -1.00500        6.39300
H          8.72800        0.76900        6.40200
H         10.77400       -0.91400        5.36900
