15
6290-49-9.pdb
C          0.97200        0.04100       -0.01500
O          2.38900        0.08800        0.00300
C          2.96800       -1.21200       -0.05300
C          4.49300       -1.15400       -0.04900
O          5.17400       -0.23900        0.39500
O          4.99700       -2.29700       -0.60300
C          6.42400       -2.30900       -0.69100
H          0.59500        1.06900       -0.01400
H          0.59500       -0.47100        0.87500
H          0.61200       -0.45900       -0.92000
H          2.64000       -1.70900       -0.97200
H          2.65400       -1.79400        0.82000
H          6.72400       -3.21500       -1.22400
H          6.86400       -2.33200        0.31100
H          6.78500       -1.44300       -1.25500
