27
62935-72-2.pdb
C          1.16100        0.49500       -0.12600
O          2.36300       -0.19700        0.19700
C          2.95500       -0.90000       -0.81600
C          4.14600       -1.54800       -0.48200
C          4.87500       -2.27300       -1.44000
C          4.43300       -2.34600       -2.76400
C          5.16800       -3.01500       -3.85300
C          4.62000       -2.98800       -5.08000
C          3.31300       -2.39200       -5.39300
O          2.83800       -2.47400       -6.51700
O          2.66300       -1.75400       -4.35500
C          3.22000       -1.71700       -3.06200
C          2.47700       -1.00900       -2.11500
C          6.44000       -3.79500       -3.60000
C          7.64800       -3.08100       -3.00700
O          7.80700       -1.79400       -3.37400
O          8.46100       -3.64800       -2.29300
H          0.86000        1.08000        0.74800
H          0.35700       -0.21400       -0.35100
H          1.31000        1.19700       -0.95500
H          4.52200       -1.48500        0.53800
H          5.79000       -2.75600       -1.10800
H          5.09000       -3.47000       -5.93500
H          1.54500       -0.55000       -2.42800
H          6.79700       -4.24700       -4.53400
H          6.19500       -4.62400       -2.92500
H          7.10500       -1.43700       -3.94800
