45
63-42-3.pdb
O          1.05200        0.47700       -0.58000
C          1.96000       -0.14000        0.33800
C          2.26400       -1.56100       -0.13800
O          2.98900       -1.49300       -1.37600
C          3.09100       -2.77200       -1.99200
O          3.73700       -2.64000       -3.26500
C          3.11000       -1.66800       -4.13600
C          1.70900       -2.10300       -4.62100
O          1.07100       -1.01500       -5.31300
C          1.82900       -3.35400       -5.50800
O          0.54800       -3.70400       -6.04900
C          2.84200       -3.11700       -6.64200
O          2.30200       -2.15600       -7.55000
O          4.10000       -2.65800       -6.17200
C          4.00000       -1.45200       -5.37900
C          5.42000       -1.01400       -5.01800
O          6.14000       -0.69500       -6.21400
C          3.91800       -3.72200       -1.08700
O          5.27100       -3.25300       -0.91300
C          3.28300       -3.78300        0.30800
O          4.09500       -4.55500        1.20000
C          3.07700       -2.36600        0.88100
O          2.38800       -2.39100        2.13200
H          1.53000        1.20700       -1.00800
H          1.47000       -0.14200        1.31600
H          2.86800        0.46700        0.39300
H          1.30100       -2.05500       -0.32400
H          2.09600       -3.20800       -2.14100
H          3.04600       -0.70200       -3.61800
H          1.05100       -2.32500       -3.77700
H          1.27600       -1.09200       -6.26700
H          2.16600       -4.19000       -4.88600
H          0.34900       -3.04000       -6.74000
H          2.98700       -4.05000       -7.19700
H          2.93200       -2.15400       -8.29500
H          3.57300       -0.67000       -6.02200
H          5.97600       -1.80400       -4.50700
H          5.40700       -0.11700       -4.39100
H          6.09900       -1.49700       -6.76800
H          3.99700       -4.71500       -1.53500
H          5.43500       -2.62100       -1.63800
H          2.31700       -4.30300        0.25300
H          5.01800       -4.30200        0.99500
H          4.05500       -1.90200        1.05600
H          2.21800       -3.31900        2.36700
