18
630-22-8.pdb
C          0.97400       -0.08500        0.10900
C          2.51500       -0.09600        0.12300
C          3.03000        0.26200       -1.28400
C          2.98400        1.00800        1.09200
C          3.00700       -1.51600        0.49600
N          2.62000       -2.53900       -0.32500
S          3.96900       -1.91000        1.80500
H          0.58800        0.90900       -0.14600
H          0.57000       -0.36000        1.09000
H          0.56300       -0.78900       -0.62200
H          2.69400        1.26000       -1.58700
H          2.67700       -0.44400       -2.04400
H          4.12600        0.25200       -1.31500
H          2.60100        1.98900        0.78800
H          4.07700        1.08300        1.11900
H          2.63100        0.82600        2.11300
H          2.04000       -2.41400       -1.14500
H          2.92900       -3.47900       -0.10700
