19
6304-16-1.pdb
C          2.85300       -1.99500        1.42700
C          2.52000       -0.87500        0.47500
O          1.66000       -0.03800        0.75400
C          3.24000       -0.84700       -0.85900
C          4.73500       -0.68600       -0.74300
C          5.57100       -1.80200       -0.64700
C          6.93900       -1.60100       -0.52800
N          7.51900       -0.38500       -0.50100
C          6.69600        0.68200       -0.59800
C          5.31700        0.58400       -0.71400
H          2.17000       -1.97000        2.28100
H          3.87500       -1.88300        1.79600
H          2.73700       -2.95600        0.91900
H          2.82900       -0.02300       -1.45700
H          2.99400       -1.76600       -1.40300
H          5.17700       -2.81300       -0.66200
H          7.62300       -2.44200       -0.44700
H          7.18900        1.64900       -0.57900
H          4.71700        1.48600       -0.79000
