21
6304-89-8.pdb
C          1.06800        0.04700        0.06900
C          2.53600       -0.07200       -0.21300
O          3.00800       -0.78500       -1.08800
O          3.24000        0.73500        0.68500
C          4.64500        0.87700        0.61700
C          5.35700        0.81800       -0.58000
C          6.74100        0.98600       -0.57200
C          7.40400        1.25100        0.62600
C          6.68300        1.35800        1.82300
C          5.29600        1.15600        1.82300
C          7.44800        1.65100        3.06200
O          6.76900        2.38500        3.96600
O          8.60500        1.29800        3.22400
H          0.50900       -0.49400       -0.70200
H          0.76200        1.09600        0.03600
H          0.84100       -0.39300        1.04200
H          4.86100        0.63100       -1.52900
H          7.30300        0.90600       -1.49900
H          8.48600        1.37600        0.62600
H          4.72200        1.18000        2.74400
H          5.93800        2.77500        3.64100
