31
63149-33-7.pdb
O          3.37300        0.02700       -0.02200
C          2.08200        0.49800       -0.00800
C          1.80300        1.86700        0.02000
C          2.87900        2.87400        0.07900
O          4.05900        2.54000        0.09900
C          0.48200        2.30900       -0.00200
C         -0.57100        1.38000       -0.01600
C         -1.98700        1.89600       -0.08600
C         -2.97600        0.87100        0.44200
C         -2.71800       -0.46500       -0.23400
N         -1.36300       -0.93100        0.05200
C         -1.07200       -2.32900       -0.26200
C          0.21200       -2.76900        0.41500
C          1.36300       -1.91600       -0.09000
C          1.03900       -0.44200       -0.01900
C         -0.31000       -0.01000       -0.02100
H          3.98300        0.79600        0.02700
H          2.57800        3.93500        0.11200
H          0.25500        3.37300       -0.00100
H         -2.21600        2.13300       -1.13200
H         -2.08700        2.82100        0.49400
H         -4.00200        1.20500        0.24900
H         -2.86300        0.76800        1.52900
H         -2.86900       -0.39000       -1.31800
H         -3.44400       -1.19400        0.14500
H         -1.01000       -2.46500       -1.34900
H         -1.89200       -2.96400        0.09800
H          0.41100       -3.82600        0.20800
H          0.11700       -2.66100        1.50300
H          1.58200       -2.16800       -1.13600
H          2.25300       -2.15000        0.50400
