18
6314-28-9.pdb
O          1.35900       -0.53000       -0.47400
C          2.43000        0.12300        0.04900
O          2.76600        1.22800       -0.35300
C          3.09100       -0.61600        1.10900
S          2.60400       -2.18900        1.56600
C          3.81200       -2.30600        2.78600
C          4.04800       -3.39900        3.64200
C          5.07000       -3.30500        4.58900
C          5.84000       -2.15400        4.68500
C          5.60800       -1.07600        3.82500
C          4.58100       -1.14400        2.85300
C          4.16100       -0.18900        1.86900
H          1.21800       -1.39300       -0.03800
H          3.44700       -4.30100        3.57100
H          5.26100       -4.14200        5.25700
H          6.62900       -2.08900        5.43000
H          6.22000       -0.18100        3.90800
H          4.62500        0.78300        1.73000
