14
6317-37-9.pdb
O          3.17400        0.44700       -1.04600
C          2.53000       -0.03300        0.04700
O          1.49300       -0.67300       -0.04700
C          3.20200        0.28600        1.29700
S          4.61900        1.25000        1.35000
C          4.72200        1.12600        3.04100
C          3.70600        0.37200        3.58300
C          2.82300       -0.11200        2.56900
N          5.79500        1.77300        3.75300
O          5.79900        1.63200        4.98200
O          6.62800        2.41400        3.10000
H          3.99300        0.92800       -0.81400
H          3.59300        0.17200        4.64300
H          1.94900       -0.72900        2.75800
