15
632-15-5.pdb
C         -2.01100       -1.56900       -0.00000
C         -0.78200       -0.71900        0.00000
C          0.50800       -1.21600       -0.00000
S          1.69200        0.01200       -0.02600
C          0.49800        1.23100       -0.02400
C         -0.78800        0.72500        0.00400
C         -2.02300        1.56500        0.03600
H         -1.76300       -2.63500        0.01600
H         -2.60500       -1.37400       -0.90000
H         -2.62700       -1.35000        0.87800
H          0.81600       -2.25300        0.00900
H          0.79800        2.27100       -0.03800
H         -1.78300        2.63300       -0.01000
H         -2.57800        1.38300        0.96100
H         -2.67200        1.32600       -0.81300
