14
632-13-3.pdb
N          2.98200       -0.08200        2.88400
C          2.57800        1.23600        2.29700
C          2.99300        1.25600        0.83600
O          2.43500        0.07100        0.20400
C          4.52700        1.13100        0.92100
O          4.93500        0.01200        0.48600
O          5.11200        1.99200        1.62400
H          2.60400       -0.26400        3.81200
H          4.01500       -0.12700        2.91400
H          2.70100       -0.81300        2.21200
H          3.00300        2.02600        2.92200
H          1.48600        1.26000        2.38200
H          2.67300        2.15200        0.29900
H          3.23200       -0.34000       -0.22300
