14
6320-39-4.pdb
N          1.02600        0.12200        0.20900
C          2.39400        0.17700        0.02000
C          3.14000        1.28900       -0.08700
N          4.49700        1.28900       -0.27800
C          5.21000        0.12300       -0.32400
C          4.63200       -1.08200       -0.24600
C          3.15100       -1.13500       -0.11200
O          2.55800       -2.21200       -0.13200
H          0.52700        0.91000       -0.18900
H          0.66000       -0.78400       -0.09100
H          2.70000        2.27900       -0.01300
H          4.99300        2.17500       -0.29800
H          6.28400        0.24000       -0.42800
H          5.17200       -2.01700       -0.28600
