37
63216-49-9.pdb
C          6.05600       -3.71900       -7.67500
C          7.28900       -4.10500       -6.85000
C          7.22400       -5.57400       -6.40400
C          8.52900       -3.92900       -7.74600
O          7.46600       -3.20000       -5.72300
C          6.54500       -3.16200       -4.72000
O          5.52600       -3.83700       -4.67900
N          6.97200       -2.32300       -3.73000
C          6.41900       -2.33800       -2.37000
C          6.77000       -3.68400       -1.69400
C          8.28400       -3.84900       -1.53500
C          8.92000       -2.68000       -0.78300
C          8.48700       -1.31000       -1.31400
C          6.96000       -1.22900       -1.45000
C          6.33900        0.14300       -1.73500
O          5.07900        0.15200       -1.83300
O          7.14500        1.11500       -1.75800
H          6.00500       -4.29500       -8.60600
H          6.08000       -2.65300       -7.92900
H          5.12700       -3.89600       -7.12800
H          7.14700       -6.24800       -7.26400
H          6.36100       -5.77500       -5.76200
H          8.11300       -5.84900       -5.82600
H          8.47800       -4.56800       -8.63500
H          9.45100       -4.17100       -7.20500
H          8.62700       -2.88900       -8.08000
H          7.84700       -1.84300       -3.90700
H          5.32900       -2.28000       -2.46700
H          6.36900       -4.52700       -2.26700
H          6.29400       -3.72900       -0.70500
H          8.74900       -3.93800       -2.52400
H          8.49400       -4.78500       -1.00600
H         10.01200       -2.76600       -0.82900
H          8.64500       -2.75100        0.27700
H          8.97400       -1.11400       -2.27600
H          8.85400       -0.53500       -0.63000
H          6.56900       -1.43200       -0.43900
