19
6325-93-5.pdb
N          1.23300       -0.20100       -0.28200
S          2.88900       -0.13300       -0.01700
O          3.08000        0.39800        1.31100
O          3.39400       -1.42400       -0.42600
C          3.39800        1.09000       -1.19200
C          2.90200        2.39500       -1.09200
C          3.27500        3.34700       -2.04700
C          4.14300        2.98100       -3.08900
C          4.64600        1.67600       -3.17800
C          4.27200        0.72900       -2.22300
N          4.52300        3.97300       -4.10500
O          4.04700        5.11400       -4.00200
O          5.29000        3.61100       -5.00300
H          0.74400       -0.14100        0.61300
H          0.99500       -1.03700       -0.81900
H          2.22700        2.66900       -0.28500
H          2.88000        4.35900       -1.96900
H          5.32100        1.38200       -3.97900
H          4.66000       -0.28600       -2.29500
