20
63285-84-7.pdb
O          0.97500        0.09200        0.03800
C          0.25400        1.07100       -0.56400
C          0.66000        1.82000       -1.64800
S         -0.52200        2.97200       -2.11000
C         -1.61100        2.41300       -0.91300
C         -1.07900        1.38100       -0.17200
C          2.34800        0.09700        0.09800
C          3.11100        1.25900        0.24000
C          4.50300        1.17400        0.31600
C          5.13000       -0.07100        0.28400
C          4.36700       -1.23400        0.18400
C          2.97600       -1.15000        0.09200
H          1.59500        1.76900       -2.18800
H         -2.58900        2.86500       -0.81500
H         -1.61300        0.88200        0.62700
H          2.63800        2.23400        0.30200
H          5.09600        2.08100        0.40700
H          6.21300       -0.13500        0.35100
H          4.85400       -2.20500        0.18100
H          2.38300       -2.05700        0.02000
