29
6328-74-1.pdb
O          3.26500       -0.76100       -1.52600
C          2.49800       -0.82300       -0.41600
O          1.28300       -0.96300       -0.49300
C          3.20700       -0.71600        0.91900
C          4.70000       -0.51500        0.85200
C          5.22900        0.77300        0.69600
C          6.60000        0.95400        0.51400
C          7.46300       -0.14400        0.55200
O          8.82800       -0.06600        0.39300
C          9.51800        1.02400        0.87200
C          9.15800        1.75200        2.01000
C          9.90800        2.86400        2.39600
C         11.05300        3.21400        1.68200
C         11.45300        2.45000        0.58700
C         10.68500        1.35600        0.18200
C          6.93900       -1.43000        0.68600
C          5.56500       -1.61800        0.83600
H          4.22300       -0.64900       -1.37000
H          2.98900       -1.62500        1.48800
H          2.76100        0.12600        1.46500
H          4.57600        1.64500        0.69600
H          6.98000        1.95900        0.35000
H          8.29000        1.47600        2.60100
H          9.60000        3.45300        3.25500
H         11.64000        4.07700        1.98700
H         12.36100        2.70600        0.04700
H         10.99800        0.76400       -0.67400
H          7.60500       -2.29000        0.67000
H          5.17600       -2.63100        0.92900
