26
6335-39-3.pdb
C          3.52600       -0.53800       -0.94200
C          2.57800        0.08700        0.08200
C          1.13300       -0.34600       -0.19700
C          3.00700       -0.25900        1.50000
C          3.35900        0.75100        2.41300
C          3.74100        0.42700        3.71900
C          3.76300       -0.91200        4.11200
C          3.45000       -1.92900        3.21200
C          3.06800       -1.59900        1.91500
S          4.12300       -1.34100        5.78500
N          2.57200       -1.36400        6.42600
O          4.60200       -2.70500        5.83900
O          4.81000       -0.24900        6.42900
H          3.20800       -0.30200       -1.96300
H          3.56500       -1.63000       -0.85600
H          4.54600       -0.16000       -0.80800
H          2.62000        1.17700       -0.04200
H          1.01800       -1.43500       -0.17200
H          0.81900       -0.00600       -1.19000
H          0.44100        0.08000        0.53700
H          3.32600        1.79700        2.11900
H          3.99300        1.21800        4.42000
H          3.47500       -2.97200        3.51700
H          2.80700       -2.40200        1.23100
H          2.32600       -2.30100        6.74200
H          2.46200       -0.62800        7.12300
