33
6336-58-9.pdb
C          0.74400       -1.59600       -0.36300
C          2.20900       -1.99900       -0.47300
C          3.05500       -0.80600       -0.91400
C          4.56000       -1.09000       -1.02800
N          5.00200       -2.10900       -2.00400
C          4.52900       -1.84000       -3.37400
C          4.93700       -2.86600       -4.44900
C          4.42600       -4.28500       -4.18300
C          4.88300       -5.24200       -5.27700
C          6.47300       -2.27200       -1.92000
C          7.24700       -1.06800       -2.29100
C          7.85700       -0.07300       -2.56700
H          0.13700       -2.43600       -0.01000
H          0.35300       -1.27900       -1.33600
H          0.61600       -0.76600        0.34000
H          2.30400       -2.82600       -1.18400
H          2.55500       -2.36200        0.50200
H          2.93100       -0.00600       -0.17300
H          2.67200       -0.40000       -1.85700
H          4.90500       -1.39700       -0.03200
H          5.04100       -0.12700       -1.24300
H          4.85900       -0.84700       -3.70500
H          3.43300       -1.81800       -3.37600
H          6.02600       -2.87800       -4.57400
H          4.53300       -2.52500       -5.41100
H          3.33100       -4.28400       -4.14100
H          4.79000       -4.65200       -3.21800
H          4.49100       -4.93800       -6.25300
H          4.52900       -6.25700       -5.07100
H          5.97500       -5.27100       -5.34100
H          6.79700       -3.12100       -2.53200
H          6.73600       -2.56200       -0.89400
H          8.37900        0.82700       -2.80000
