18
6342-56-9.pdb
C          1.01900       -0.05600       -0.19900
O          2.43400       -0.08500       -0.08000
C          2.88000       -0.79600        1.07200
O          2.39200       -2.13400        1.10200
C          2.92800       -2.95000        0.06800
C          4.42100       -0.69900        1.23600
C          5.01300       -1.37600        2.44800
O          5.15800       -0.09400        0.45200
H          0.75400        0.71900       -0.92500
H          0.53600        0.17900        0.75400
H          0.65600       -1.01500       -0.58000
H          2.46900       -0.28500        1.95100
H          2.33400       -3.86700        0.01900
H          3.96000       -3.22800        0.30100
H          2.88100       -2.45800       -0.90700
H          4.23500       -1.85500        3.04700
H          5.51800       -0.62900        3.06400
H          5.72400       -2.13800        2.11800
