24
6343-27-7.pdb
O         -2.20100        0.28300       -0.84800
C         -1.09700        0.00900       -0.39900
C         -0.67900       -1.40100       -0.11400
C          0.81300       -1.30500        0.07200
C          1.06000        0.16100        0.27200
O          2.12200        0.58200        0.70700
N         -0.07900        0.86200       -0.03600
C         -0.02800        2.23600       -0.26900
O          0.97400        2.79600       -0.72000
C         -1.27200        3.06400       -0.13900
C         -2.33600        2.73000        0.70300
C         -3.48700        3.53000        0.73700
C         -3.55800        4.69100       -0.03100
C         -2.47800        5.06500       -0.82600
C         -1.34100        4.25700       -0.87900
H         -0.93900       -2.05800       -0.94900
H         -1.17700       -1.74900        0.79600
H          1.35400       -1.64800       -0.81500
H          1.14400       -1.87300        0.94600
H         -2.31400        1.84200        1.32500
H         -4.33400        3.23900        1.35400
H         -4.45500        5.30700       -0.00800
H         -2.52100        5.98000       -1.41400
H         -0.50700        4.56200       -1.51000
