19
6343-54-0.pdb
O          2.75800        0.51900        0.83900
C          2.31000        0.43000       -0.29400
N          2.99800       -0.01800       -1.38900
C          4.37600       -0.43100       -1.28600
C          4.91700       -0.88100       -2.61700
C          5.52300        0.03600       -3.48900
C          6.02700       -0.38500       -4.72100
C          5.92300       -1.72300       -5.09900
C          5.30800       -2.63900       -4.24800
C          4.80100       -2.22000       -3.01600
H          1.27400        0.71200       -0.54600
H          2.54400       -0.03500       -2.29200
H          4.44500       -1.24100       -0.54800
H          4.96400        0.40500       -0.89000
H          5.61400        1.08300       -3.20800
H          6.50600        0.33000       -5.38600
H          6.32300       -2.05100       -6.05400
H          5.22600       -3.68200       -4.54300
H          4.32300       -2.94700       -2.36400
