24
6344-62-3.pdb
N          0.96200        0.04600       -0.11500
C          2.34300        0.04300        0.09000
C          3.06100       -1.15800        0.06800
C          4.47100       -1.17600        0.09600
C          5.20700        0.01300        0.10700
C          4.51400        1.20900        0.09300
C          4.98900        2.57500        0.08500
C          6.27400        3.09300        0.08400
C          6.43000        4.48500        0.08000
C          5.31100        5.34000        0.07700
C          4.01600        4.82200        0.07500
C          3.89000        3.44600        0.07600
C          2.66300        2.61900        0.07800
O          1.51800        3.02800        0.11500
C          3.10600        1.20300        0.07500
H          0.46600       -0.75900        0.25000
H          0.52300        0.93600        0.13100
H          2.52800       -2.10500        0.01900
H          4.99100       -2.13100        0.08800
H          6.29200       -0.01500        0.11300
H          7.14500        2.44600        0.08700
H          7.43000        4.91300        0.08000
H          5.46200        6.41900        0.07600
H          3.14300        5.46500        0.07300
