22
635-53-0.pdb
O          2.67000       -2.14600        1.33900
C          2.87100       -1.10000        0.49500
O          2.06700       -0.18900        0.37800
C          4.19000       -1.23600       -0.25800
O          4.50900       -0.19100       -1.15200
C          5.50900       -0.41400       -2.06400
C          5.35600        0.41600       -3.19100
C          6.27600        0.40700       -4.23900
C          7.38700       -0.42200       -4.17300
C          7.55800       -1.25800       -3.07000
C          6.63100       -1.26700       -2.00500
C          6.92700       -2.24600       -0.92200
O          8.19600       -2.16200       -0.46000
O          6.14100       -3.07500       -0.50100
H          3.39200       -2.80800        1.31600
H          4.08600       -2.16600       -0.81900
H          4.95700       -1.26000        0.52200
H          4.48900        1.07300       -3.25700
H          6.11700        1.04400       -5.10700
H          8.10900       -0.43200       -4.98600
H          8.41800       -1.92800       -3.06200
H          8.73700       -1.44200       -0.83600
