13
636-72-6.pdb
O          2.42200        1.10600        0.93700
C          2.49600        0.03300        0.00500
C          2.94800       -1.18200        0.74500
S          2.42900       -2.73500        0.23100
C          3.30300       -3.51300        1.47800
C          3.99300       -2.61700        2.26200
C          3.79300       -1.27300        1.83500
H          2.07900        1.87100        0.44800
H          3.21400        0.29500       -0.77700
H          1.50500       -0.10400       -0.44000
H          3.26900       -4.58900        1.57600
H          4.60800       -2.90900        3.10400
H          4.23500       -0.40400        2.31000
