30
636-09-9.pdb
C          1.52300        0.79900       -0.40900
C          2.88000        0.89800        0.26400
O          3.80000        1.40800       -0.70800
C          4.43100        0.47500       -1.45900
O          4.54800       -0.71200       -1.21100
C          4.90200        1.10300       -2.71600
C          4.27300        2.24700       -3.22900
C          4.67600        2.77300       -4.45400
C          5.71400        2.16100       -5.17100
C          6.35000        1.02600       -4.65300
C          5.93400        0.48800       -3.43300
C          6.20600        2.73800       -6.44200
O          7.35300        2.61500       -6.84100
O          5.21300        3.45000       -7.02300
C          5.62700        4.38300       -8.03100
C          5.87000        5.71300       -7.34300
H          0.75400        0.46500        0.29000
H          1.56100        0.10300       -1.25500
H          1.23300        1.77200       -0.82200
H          3.19900       -0.06600        0.67400
H          2.84000        1.61500        1.09100
H          3.45800        2.72800       -2.69300
H          4.18300        3.66500       -4.83600
H          7.16600        0.55700       -5.20100
H          6.41500       -0.40700       -3.04500
H          4.81400        4.47500       -8.75800
H          6.51700        4.04200       -8.57200
H          4.96000        6.04400       -6.82900
H          6.17500        6.48100       -8.05700
H          6.64400        5.61500       -6.57300
