17
63604-59-1.pdb
C          1.14300        0.08300        0.02300
C          2.62500        0.05600        0.02300
N          3.38800        1.19900        0.02200
C          4.70700        0.83300        0.02200
C          5.88900        1.55200        0.02000
N          7.05900        0.87100        0.02000
C          7.03500       -0.48400        0.02200
C          5.88600       -1.26000        0.02400
C          4.68300       -0.55500        0.02400
N          3.38900       -1.01700        0.02500
H          0.75500        1.10600        0.02300
H          0.75700       -0.42800        0.91100
H          0.75700       -0.42900       -0.86400
H          3.03400        2.14500        0.02000
H          5.94400        2.63300        0.01900
H          8.01500       -0.95600        0.02200
H          5.91400       -2.34000        0.02500
