35
63648-73-7.pdb
O          5.67300        1.24600       -6.49900
C          6.51800        0.74200       -5.57200
O          7.26200       -0.19600       -5.79400
C          6.42700        1.43700       -4.23800
C          5.39300        0.75600       -3.33900
C          5.31400        1.40000       -1.94700
N          4.97000        2.83000       -2.00600
C          3.80600        3.30000       -2.55400
O          3.80300        4.30000       -3.25700
O          2.73100        2.61800       -2.12200
C          1.46900        3.28800       -2.25300
C          0.49700        2.43500       -3.02100
C          0.10800        1.17900       -2.53500
C         -0.83200        0.41500       -3.22700
C         -1.38800        0.89600       -4.41100
C         -1.00400        2.14100       -4.90600
C         -0.06500        2.90700       -4.21700
C          4.46900        0.57100       -0.95800
O          3.88300        1.32500        0.00400
O          4.41900       -0.64900       -0.94600
H          5.12200        1.99300       -6.19400
H          6.20100        2.49800       -4.40100
H          7.42200        1.40800       -3.77900
H          5.66200       -0.30200       -3.23800
H          4.40900        0.77300       -3.82400
H          6.32100        1.38800       -1.50600
H          5.73700        3.43300       -2.28000
H          1.55800        4.28300       -2.70200
H          1.07400        3.44200       -1.24200
H          0.52800        0.79400       -1.60700
H         -1.13300       -0.55600       -2.84100
H         -2.12300        0.30200       -4.94800
H         -1.44000        2.51800       -5.82700
H          0.21600        3.88100       -4.61000
H          4.00600        2.27600       -0.19300
