17
637-44-5.pdb
O          1.15500       -0.10000        0.19800
C          2.50400       -0.04700        0.20000
O          3.16200        0.69200       -0.51300
C          3.13200       -0.95800        1.12300
C          3.69300       -1.72500        1.86000
C          4.39900       -2.65500        2.68900
C          5.45300       -2.22400        3.49900
C          6.16700       -3.14700        4.26800
C          5.82200       -4.49800        4.23600
C          4.76400       -4.92800        3.43800
C          4.05500       -4.00900        2.66100
H          0.81600       -0.75400        0.83700
H          5.73400       -1.17400        3.52900
H          6.99700       -2.81300        4.88600
H          6.38200       -5.21600        4.83100
H          4.49500       -5.98100        3.41300
H          3.24400       -4.36000        2.02900
