20
637-69-4.pdb
C          1.24200       -0.41600        0.22200
O          2.47400        0.20900       -0.12100
C          3.09700        0.92000        0.86700
C          2.62500        1.10100        2.16600
C          3.36900        1.84300        3.09300
C          4.59600        2.41600        2.73800
C          5.38800        3.23200        3.66700
C          5.43500        3.06500        4.99600
C          5.05200        2.24700        1.42500
C          4.31200        1.50100        0.50100
H          0.91100       -1.00500       -0.63800
H          0.47100        0.33300        0.43300
H          1.36500       -1.10400        1.06500
H          1.68100        0.68000        2.49500
H          2.96600        1.97300        4.09500
H          5.99300        4.01700        3.21600
H          4.88100        2.28700        5.51100
H          6.06000        3.71000        5.60600
H          5.99600        2.68600        1.10800
H          4.68900        1.37200       -0.51100
