23
6375-17-3.pdb
C          0.93500        0.22400        0.21300
C          2.39100        0.24600       -0.16300
O          2.74800       -0.06700       -1.29400
N          3.20400        0.65000        0.87800
C          4.60500        0.81400        0.84900
C          5.35500        0.82100       -0.32800
C          6.75000        0.95500       -0.28900
C          7.54700        0.93000       -1.56300
C          7.39300        1.08500        0.94600
C          6.65400        1.10400        2.13000
C          5.26700        0.97600        2.07400
O          4.52400        0.97900        3.22700
H          0.38100       -0.36600       -0.52400
H          0.54600        1.24600        0.21600
H          0.79200       -0.23500        1.19500
H          2.80100        0.74200        1.80600
H          4.86900        0.73300       -1.29500
H          6.89500        0.91500       -2.44300
H          8.17500        0.03400       -1.59300
H          8.17900        1.82000       -1.63200
H          8.47800        1.17200        0.98900
H          7.17500        1.21100        3.07700
H          5.13200        1.05100        3.98100
