38
63799-11-1.pdb
C          5.50300        0.28300       -2.76800
C          4.77800        0.21400       -1.43200
C          5.34700        1.16600       -0.36400
C          6.83100        0.91000       -0.07600
C          4.51300        1.02800        0.92700
C          4.86400        2.03400        1.99500
C          4.79700        3.40800        1.74500
C          5.08600        4.33000        2.75500
C          5.42200        3.91200        4.05200
C          5.50100        2.52400        4.27600
C          5.23900        1.59900        3.26500
C          5.62800        4.86900        5.16200
C          4.93900        6.09500        5.21700
C          5.06100        6.95000        6.31700
C          5.87000        6.58900        7.39300
C          6.58300        5.39600        7.35400
C          6.47200        4.55600        6.24500
C          5.96100        7.43600        8.53600
N          6.02900        8.12300        9.47200
H          4.98500       -0.33700       -3.50700
H          6.52800       -0.09000       -2.68600
H          5.53300        1.30900       -3.14700
H          4.79600       -0.82000       -1.06700
H          3.72400        0.46800       -1.60500
H          5.25300        2.18900       -0.74900
H          7.00000       -0.12100        0.25000
H          7.20600        1.57600        0.70800
H          7.44500        1.10000       -0.96100
H          4.62500        0.01000        1.32300
H          3.44500        1.14800        0.70400
H          4.51300        3.77700        0.76300
H          5.03400        5.38800        2.50600
H          5.74100        2.13200        5.26200
H          5.31700        0.53800        3.49100
H          4.26600        6.39100        4.41500
H          4.50000        7.88400        6.33200
H          7.21900        5.09600        8.18700
H          7.05500        3.63600        6.24300
