15
638-02-8.pdb
C         -2.66700        0.26300       -0.02300
C         -1.23400       -0.14800       -0.00800
S          0.00600        1.02800       -0.00500
C          1.23500       -0.16100       -0.00200
C          2.67200        0.23400       -0.00200
C          0.70600       -1.43500       -0.00000
C         -0.71900       -1.42700        0.00200
H         -2.79100        1.35000       -0.00300
H         -3.18900       -0.15100        0.84600
H         -3.15600       -0.11500       -0.92800
H          2.80800        1.32000        0.00400
H          3.17100       -0.16300       -0.89200
H          3.17400       -0.17200        0.88200
H          1.31200       -2.33300       -0.00100
H         -1.33400       -2.31900        0.00500
