15
638-32-4.pdb
N          1.17000        0.05400       -0.00600
C          2.53000        0.07900       -0.09700
O          3.08900        0.38000       -1.14500
C          3.25400       -0.28700        1.17600
C          4.76600       -0.23000        0.97600
C          5.50800       -0.59400        2.23500
O          6.85100       -0.54600        2.07600
O          4.98500       -0.90100        3.29400
H          0.63500        0.29200       -0.83200
H          0.67400       -0.18800        0.84000
H          2.94600       -1.29600        1.47600
H          2.94700        0.40800        1.96600
H          5.06500        0.78300        0.68200
H          5.06400       -0.93000        0.18700
H          7.13400       -0.28600        1.17800
