71
638-67-5.pdb
C          0.92800       -0.13000        0.05700
C          2.44700       -0.12000        0.05200
C          2.98200        0.52300       -1.22300
C          4.50600        0.53200       -1.23100
C          5.02800        1.17800       -2.50900
C          6.55000        1.18700       -2.51900
C          7.06600        1.83100       -3.79700
C          8.58600        1.84000       -3.80500
C          9.10100        2.48400       -5.08200
C         10.61900        2.49000       -5.08800
C         11.13500        3.13400       -6.36300
C         12.65300        3.13900       -6.36900
C         13.16900        3.78200       -7.64500
C         14.68800        3.78600       -7.65300
C         15.20300        4.43000       -8.93000
C         16.72200        4.43500       -8.93900
C         17.23900        5.08000      -10.21500
C         18.76000        5.08600      -10.22200
C         19.28200        5.73200      -11.49700
C         20.80500        5.74000      -11.51000
C         21.32600        6.38900      -12.78600
C         22.84900        6.40400      -12.81200
C         23.36300        7.05200      -14.08400
H          0.55500       -0.59400        0.97400
H          0.53900       -0.69700       -0.79500
H          0.53100        0.88900        0.00300
H          2.81700       -1.14800        0.13500
H          2.81000        0.42900        0.92800
H          2.60800        1.55100       -1.30400
H          2.61300       -0.02500       -2.09800
H          4.88500       -0.49400       -1.15400
H          4.88000        1.08200       -0.35900
H          4.65200        2.20500       -2.58700
H          4.65600        0.62800       -3.38200
H          6.93000        0.16100       -2.44200
H          6.92600        1.73800       -1.64800
H          6.68800        2.85800       -3.87600
H          6.69300        1.28100       -4.66900
H          8.96600        0.81400       -3.72700
H          8.96100        2.39200       -2.93400
H          8.72400        3.51100       -5.16100
H          8.72700        1.93400       -5.95500
H         10.99800        1.46200       -5.01200
H         10.99400        3.03900       -4.21600
H         10.75900        4.16400       -6.43900
H         10.75900        2.58900       -7.23700
H         13.02900        2.11000       -6.29200
H         13.02900        3.68700       -5.49700
H         12.79200        4.80900       -7.72300
H         12.79300        3.23200       -8.51700
H         15.06300        2.75800       -7.57700
H         15.06400        4.33400       -6.78100
H         14.82500        5.45700       -9.00600
H         14.82700        3.88100       -9.80200
H         17.09800        3.40700       -8.86200
H         17.09700        4.98200       -8.06500
H         16.86100        6.10700      -10.29000
H         16.86400        4.53100      -11.08700
H         19.13500        4.05900      -10.14500
H         19.13300        5.63400       -9.34800
H         18.90400        6.75900      -11.57200
H         18.90500        5.18500      -12.37100
H         21.18200        4.71200      -11.43500
H         21.17800        6.28600      -10.63500
H         20.94600        7.41600      -12.85700
H         20.94500        5.84300      -13.65900
H         23.23300        5.37900      -12.74500
H         23.23300        6.95200      -11.94300
H         23.01700        6.50700      -14.96800
H         24.45800        7.05600      -14.09300
H         23.01700        8.08800      -14.16300
