18
6384-92-5.pdb
C          2.73200       -3.28800       -1.52700
N          2.49000       -1.85200       -1.38800
C          2.95900       -1.24500       -0.05900
C          2.46000        0.19500        0.01300
C          0.95700        0.32100       -0.20600
O          0.44500        1.42300        0.11300
O          0.41600       -0.68500       -0.76600
C          4.51600       -1.23800        0.06200
O          4.99000       -1.44000        1.20900
O          5.09500       -1.16700       -1.06900
H          2.42600       -3.57300       -2.53700
H          2.13000       -3.81600       -0.78600
H          3.79500       -3.49600       -1.39100
H          1.47300       -1.59700       -1.44400
H          3.01600       -1.32300       -2.09300
H          2.50800       -1.85600        0.73200
H          2.70700        0.62000        0.99300
H          2.96100        0.81800       -0.74000
