17
6393-40-4.pdb
N          1.17600        0.05200        0.32200
C          2.54300       -0.02200        0.01700
C          3.26400        1.18200        0.01000
C          4.65600        1.20400       -0.13600
C          5.36900        0.01000       -0.24100
C          4.68500       -1.20700       -0.19200
C          3.28200       -1.22500       -0.05100
N          2.61300       -2.53800       -0.03000
O          1.37400       -2.57300       -0.06700
O          3.33400       -3.54700       -0.01000
C          6.79600        0.03300       -0.39000
N          7.94900        0.05500       -0.51400
H          0.70000        0.88900       -0.00300
H          0.64900       -0.79900        0.10000
H          2.73900        2.12900        0.13100
H          5.17400        2.16200       -0.15100
H          5.25000       -2.13700       -0.26000
