18
64-10-8.pdb
N          1.13900        0.05500        0.14500
C          2.45200       -0.01500       -0.21600
O          2.78700       -0.75600       -1.12900
N          3.23900        0.78400        0.56800
C          4.63200        0.96900        0.45700
C          5.37300        0.58100       -0.66100
C          6.75900        0.76500       -0.69100
C          7.41300        1.34100        0.39500
C          6.67900        1.75200        1.50600
C          5.29300        1.57600        1.53200
H          0.54600       -0.48100       -0.47900
H          0.77800        0.97400        0.36100
H          2.80300        1.10300        1.42000
H          4.89700        0.13400       -1.52900
H          7.32400        0.44900       -1.56400
H          8.49200        1.46800        0.37500
H          7.18700        2.20200        2.35500
H          4.74400        1.89800        2.41300
