28
640-57-3.pdb
C          2.48300       -0.02800       -0.00100
C          0.98200       -0.00400        0.04100
C          0.28000        1.20800        0.08600
C         -1.11700        1.21700        0.09400
C         -1.81600        0.00700        0.07000
C         -1.12800       -1.20800        0.02300
C          0.26800       -1.21000        0.01400
S         -3.59200        0.01800       -0.03100
O         -3.97500        1.24100       -0.71200
O         -4.00500       -1.26900       -0.56600
C         -4.21700        0.11800        1.63200
C         -4.50600        1.36900        2.18500
C         -5.04800        1.44400        3.46800
C         -5.30800        0.27700        4.18700
C         -5.03600       -0.97100        3.62300
C         -4.49300       -1.05600        2.34100
H          2.90300        0.98400        0.00700
H          2.82600       -0.52500       -0.91400
H          2.87600       -0.56300        0.86900
H          0.81700        2.15500        0.09400
H         -1.64700        2.16800        0.09800
H         -1.66400       -2.15300       -0.02900
H          0.80000       -2.15800       -0.03500
H         -4.33200        2.28300        1.62200
H         -5.28000        2.41300        3.90500
H         -5.73800        0.33900        5.18400
H         -5.26100       -1.87800        4.18000
H         -4.30700       -2.03300        1.90000
