19
640-68-6.pdb
C          1.04100       -0.05500       -0.01700
C          2.57000        0.00600        0.06000
C          3.00800        1.38900        0.55500
C          3.20000       -1.12100        0.90700
N          2.75600       -1.15300        2.33300
C          2.96600       -2.52000        0.29800
O          2.83600       -3.45400        1.28000
O          2.93400       -2.78800       -0.89000
H          0.66000        0.74000       -0.66900
H          0.57300        0.07600        0.96300
H          0.70200       -1.00900       -0.43500
H          2.94500       -0.10000       -0.96700
H          2.61200        1.60900        1.55100
H          2.65200        2.17100       -0.12400
H          4.10000        1.45900        0.59700
H          4.29000       -0.99400        0.91900
H          1.73300       -1.09600        2.35700
H          3.06500       -0.28400        2.77900
H          2.89900       -2.95600        2.13400
