22
64090-98-8.pdb
N          0.86700       -0.22200        0.10100
C          2.36000       -0.10700        0.14300
C          2.86300        1.31500        0.43900
C          2.49200        2.32300       -0.61700
C          1.35900        3.13100       -0.49000
C          1.05500        4.05600       -1.48500
C          1.89700        4.14200       -2.58100
N          2.99300        3.37300       -2.74200
C          3.26800        2.48500       -1.76200
C          2.87300       -1.08200        1.21600
O          1.96800       -2.07100        1.45100
O          3.95400       -1.01300        1.78400
H          0.54400        0.30000       -0.72200
H          0.48500        0.30400        0.89300
H          2.74800       -0.46600       -0.81700
H          3.95800        1.30600        0.53300
H          2.49800        1.65400        1.41700
H          0.71500        3.05600        0.38300
H          0.18700        4.70200       -1.40400
H          1.70800        4.85600       -3.37800
H          4.16800        1.89900       -1.92500
H          1.18300       -1.85800        0.88700
