17
641-70-3.pdb
O          1.91200       -0.81900        0.76700
N          2.40100       -0.07100       -0.08700
O          2.40200        1.16500       -0.06800
C          3.12200       -0.70500       -1.16100
C          4.27900       -1.44200       -0.87000
C          5.00200       -2.03700       -1.91900
C          4.57100       -1.89600       -3.24400
C          3.41800       -1.16100       -3.47500
C          2.75200       -0.87400       -4.72600
O          3.10900       -1.22900       -5.83000
O          1.65700       -0.13900       -4.39900
C          1.55300        0.06500       -3.05800
O          0.65800        0.63400       -2.47100
C          2.70300       -0.57600       -2.46700
H          4.62400       -1.55600        0.15700
H          5.90300       -2.60900       -1.70000
H          5.11900       -2.35100       -4.06500
