33
6410-10-2.pdb
O          3.64100        7.50400       12.29400
N          3.36400        8.17500       11.29700
O          2.52400        9.08400       11.30000
C          4.06700        7.89300       10.04100
C          5.01000        6.85900        9.99700
C          5.64600        6.56700        8.79000
C          5.34500        7.28900        7.62800
N          5.94500        6.96700        6.39200
N          5.85000        5.63600        6.11100
C          5.82300        5.38700        4.83500
C          6.72600        6.09900        3.82600
O          7.73700        6.69300        4.17900
C          6.28500        6.11100        2.39300
C          5.50500        5.07000        2.04900
C          4.36600        4.82500        2.94500
C          3.05400        4.79300        2.49100
C          2.00400        4.57700        3.39200
C          2.27500        4.32200        4.74100
C          3.58100        4.37200        5.20900
C          4.61700        4.69500        4.31900
C          4.42900        8.34600        7.69400
C          3.77600        8.64400        8.89400
H          5.25000        6.26700       10.87600
H          6.35800        5.74600        8.74000
H          6.87200        7.38600        6.27200
H          5.90900        7.12000        2.21100
H          6.02000        4.11000        1.91400
H          2.82700        4.99800        1.44900
H          0.97500        4.63700        3.05500
H          1.45600        4.15500        5.43900
H          3.77300        4.28400        6.27800
H          4.17900        8.90100        6.79300
H          3.04000        9.44600        8.91300
