16
6419-36-9.pdb
O          2.02500       -1.21200       -0.21100
C          2.34200       -0.00500       -0.00100
O          2.01700        0.75600        0.95600
C          3.18700        0.64100       -1.09600
C          4.66800        0.49500       -0.87400
C          5.49600        1.61600       -0.76500
C          6.86700        1.45500       -0.59600
C          7.37200        0.16600       -0.55300
N          6.61700       -0.94500       -0.67000
C          5.28000       -0.75500       -0.81600
H          2.91400        1.70200       -1.16300
H          2.92900        0.20200       -2.06800
H          5.06700        2.61500       -0.80400
H          7.52000        2.31200       -0.49500
H          8.43500       -0.01200       -0.41600
H          4.68900       -1.66600       -0.89500
