30
642-36-4.pdb
O          1.87900       -0.03200       -0.01700
C          0.66400       -0.02800       -0.04000
N         -0.20400       -1.12900       -0.04500
C         -1.50800       -0.67700       -0.04300
C         -1.49500        0.66600       -0.03400
N         -0.18600        1.09000       -0.04700
C         -2.61500        1.59500        0.04700
C         -3.07300        2.02300        1.29900
C         -4.15800        2.89700        1.39500
C         -4.79100        3.34900        0.23900
C         -4.34500        2.92100       -1.01100
C         -3.26200        2.04200       -1.10900
C         -2.64400       -1.58900       -0.01200
C         -3.25900       -2.00000       -1.19900
C         -4.27100       -2.96300       -1.16800
C         -4.68200       -3.50800        0.04800
C         -4.10200       -3.07200        1.23800
C         -3.09500       -2.10600        1.20900
H          0.10300       -2.08700       -0.03000
H          0.13700        2.04200       -0.01200
H         -2.59300        1.67600        2.21100
H         -4.50800        3.22100        2.37200
H         -5.63400        4.03100        0.31400
H         -4.84600        3.26700       -1.91200
H         -2.93500        1.70600       -2.09000
H         -2.92800       -1.60600       -2.15800
H         -4.71900       -3.31000       -2.09600
H         -5.44700       -4.28100        0.06800
H         -4.41600       -3.49900        2.18700
H         -2.64000       -1.78800        2.14400
