30
642-29-5.pdb
O          1.30200       -0.09800       -0.96300
C          2.49900       -0.00900       -0.71600
C          3.30500       -1.25400       -0.48100
C          2.78500       -2.46800       -0.95200
C          3.50500       -3.65700       -0.80000
C          4.74800       -3.64200       -0.16900
C          5.25600       -2.44800        0.34100
C          4.53100       -1.26000        0.19900
C          3.11000        1.34200       -0.56700
C          2.39000        2.25400        0.21600
C          2.96400        3.46900        0.56500
C          4.28700        3.72500        0.22600
C          4.99900        2.84700       -0.61300
C          6.31300        3.14900       -0.98200
C          6.91900        2.49100       -2.05400
C          6.23500        1.46200       -2.69500
C          5.00800        1.02100       -2.19600
C          4.36200        1.69500       -1.13000
H          1.81200       -2.49500       -1.43900
H          3.09800       -4.58800       -1.17900
H          5.31800       -4.56400       -0.06800
H          6.21600       -2.44200        0.85000
H          4.94700       -0.35300        0.63000
H          1.38300        2.01700        0.55200
H          2.39400        4.20700        1.12100
H          4.74600        4.65600        0.54600
H          6.86600        3.92800       -0.46400
H          7.88900        2.81400       -2.40600
H          6.66200        1.00300       -3.58700
H          4.52200        0.18200       -2.69800
