19
64224-21-1.pdb
C          1.15600        0.00100        0.05300
C          2.65500       -0.09000        0.04100
C          3.37400       -1.22600        0.03400
S          5.10200       -1.17700        0.01200
S          5.19900        0.85300        0.03200
C          3.46500        1.16700        0.02900
S          2.88900        2.74400        0.02800
C          2.79000       -2.56900        0.02800
C          2.53400       -3.26000        1.21000
N          1.95300       -4.48500        1.23500
C          1.64700       -5.00100        0.02300
C          1.90300       -4.32300       -1.15700
N          2.46800       -3.09300       -1.18200
H          0.66900       -0.97800        0.07900
H          0.79400        0.51500       -0.84400
H          0.81100        0.54700        0.93700
H          2.78200       -2.84400        2.18100
H          1.18400       -5.98200        0.02500
H          1.65600       -4.75200       -2.12100
