27
643-65-2.pdb
C          2.48300       -0.02600        0.00000
C          0.98400       -0.00600        0.02700
C          0.28100        1.20400        0.03700
C         -1.11400        1.21500        0.04500
C         -1.82000        0.01500        0.03200
C         -1.13400       -1.20500        0.03500
C          0.26700       -1.21200        0.02600
C         -1.85300       -2.51100       -0.01800
O         -1.31300       -3.47500       -0.54700
C         -3.22600       -2.65900        0.53300
C         -3.64400       -1.96700        1.67800
C         -4.95200       -2.11000        2.14300
C         -5.83700       -2.96200        1.48200
C         -5.41500       -3.67500        0.35900
C         -4.11100       -3.52800       -0.11400
H          2.89800        0.98700        0.01500
H          2.83700       -0.52100       -0.91000
H          2.87100       -0.55900        0.87400
H          0.81700        2.15200        0.02700
H         -1.65000        2.16100        0.04600
H         -2.90500        0.05400        0.00100
H          0.80200       -2.16100        0.00800
H         -2.96400       -1.31300        2.22000
H         -5.28000       -1.56200        3.02200
H         -6.85300       -3.07800        1.84800
H         -6.10500       -4.34600       -0.14900
H         -3.78700       -4.08500       -0.99100
