20
6436-59-5.pdb
C          1.55200       -0.51300       -1.10000
C          2.43900        0.23300       -0.11500
O          3.25900        1.13000       -0.87000
C          4.38400        0.56500       -1.39200
O          4.92600       -0.44400       -0.94200
C          4.81600        1.21300       -2.62900
C          5.84900        0.72600       -3.41000
S          6.05000        1.69000       -4.80700
C          4.75600        2.69300       -4.29000
C          4.36400        3.88800       -5.08600
N          4.18100        2.33800       -3.16100
H          0.85200       -1.17200       -0.58200
H          2.16000       -1.11400       -1.78600
H          0.99200        0.19500       -1.71900
H          3.02900       -0.46000        0.49300
H          1.82600        0.82800        0.56800
H          6.46900       -0.14100       -3.22300
H          4.88000        3.93500       -6.05000
H          4.60600        4.79700       -4.52700
H          3.28700        3.87900       -5.27900
