30
644-13-3.pdb
O          1.18200        0.42600        0.03700
C          2.40400        0.26400        0.07000
C          3.18800        0.76800       -1.07700
C          2.68600        1.88500       -1.76300
C          3.36200        2.38900       -2.87000
C          4.54200        1.77600       -3.30900
C          5.02900        0.66200       -2.62600
C          4.35500        0.14200       -1.52200
C          2.98300       -0.41500        1.26200
C          2.10100       -1.20700        2.00300
C          2.48400       -1.72700        3.23300
C          3.78900       -1.55800        3.69600
C          4.15400       -2.07500        4.94100
C          5.49600       -2.17400        5.29100
C          6.46900       -1.65500        4.44300
C          6.09400       -0.95800        3.28800
C          4.74500       -0.90800        2.88400
C          4.31100       -0.26800        1.70100
H          1.75400        2.34900       -1.44100
H          2.95500        3.24000       -3.40900
H          5.06200        2.16400       -4.17500
H          5.93700        0.17000       -2.98500
H          4.72900       -0.75900       -1.04600
H          1.09300       -1.40000        1.63800
H          1.76400       -2.30600        3.80600
H          3.39400       -2.43100        5.63300
H          5.77400       -2.68100        6.21100
H          7.52000       -1.79000        4.68800
H          6.87400       -0.50700        2.67800
H          5.01100        0.35100        1.14800
