29
644-78-0.pdb
O          1.91100       -0.10000        1.32500
C          0.74100       -0.04200        0.61000
C         -0.05000       -1.19500        0.53800
C         -1.25800       -1.17000       -0.15400
C         -1.67500        0.00500       -0.77200
C         -0.88300        1.15600       -0.70000
C          0.34600        1.15400       -0.01900
C          1.09000        2.43100        0.02900
C          2.42600        2.52200        0.08700
C          3.12500        3.83500        0.18700
O          2.64500        4.87600       -0.24000
C          4.47900        3.80400        0.81700
C          5.45500        4.72400        0.41900
C          6.72200        4.69700        1.01200
C          7.01200        3.76400        2.00800
C          6.03800        2.85500        2.41800
C          4.77500        2.87700        1.82800
H          2.00700       -0.99600        1.68700
H          0.25600       -2.11900        1.02200
H         -1.87600       -2.06200       -0.20800
H         -2.61900        0.03100       -1.31100
H         -1.23400        2.06100       -1.19000
H          0.49000        3.33900        0.01300
H          3.05300        1.64000        0.09100
H          5.23700        5.45900       -0.35300
H          7.48500        5.40700        0.70000
H          7.99400        3.74900        2.47400
H          6.25800        2.13400        3.20200
H          4.02400        2.17500        2.18300
