21
644-36-0.pdb
C          2.44200        0.41700       -0.09600
C          0.95200        0.20300       -0.03600
C          0.13000        1.34400        0.03100
C         -1.25800        1.23200        0.08600
C         -1.84700       -0.02500        0.10400
C         -1.05100       -1.16700        0.05500
C          0.35200       -1.07600       -0.03200
C          1.14000       -2.36700       -0.16900
C          1.40500       -3.18400        1.07600
O          1.14300       -2.58600        2.26000
O          1.85900       -4.31900        1.02600
H          2.68000        1.45500       -0.35300
H          2.90400       -0.20300       -0.86900
H          2.89300        0.19700        0.87700
H          0.57100        2.33900        0.02000
H         -1.87400        2.12700        0.10300
H         -2.93200       -0.11500        0.13700
H         -1.54000       -2.14200        0.05500
H          2.10700       -2.18000       -0.64400
H          0.58200       -3.01600       -0.85800
H          0.78200       -1.68300        2.18800
