19
645-08-9.pdb
C          1.04800        0.04000       -0.02200
O          2.46600       -0.01400       -0.04000
C          3.13100        1.18600       -0.05200
C          2.51900        2.44100       -0.04800
C          3.29300        3.60800       -0.06900
C          4.69500        3.55000       -0.09500
C          5.30500        2.28700       -0.09000
C          4.53100        1.12400       -0.06800
O          5.15500       -0.09900       -0.06100
C          5.52600        4.81700       -0.12700
O          4.89700        5.92100       -0.13400
O          6.79000        4.67600       -0.14800
H          0.67400       -0.98800       -0.03500
H          0.65700        0.54600       -0.91100
H          0.68400        0.51400        0.89600
H          1.44200        2.55900       -0.03000
H          2.80600        4.58200       -0.06800
H          6.39200        2.24100       -0.10700
H          6.11000        0.07100       -0.05400
