14
645-92-1.pdb
N          1.22700        0.02500       -0.14400
C          2.57600       -0.06600       -0.04200
N          3.19000       -1.20100       -0.04900
C          4.57400       -1.13900        0.03600
O          5.20700       -2.19200        0.02000
N          5.28600        0.05100        0.13900
C          4.57800        1.12900        0.12800
N          5.13000        2.36300        0.23200
N          3.23300        1.10500        0.03400
H          0.77900       -0.88200       -0.01900
H          0.76900        0.74300        0.40500
H          6.14400        2.31500        0.13900
H          4.74500        3.07200       -0.38100
H          2.71900        1.96600        0.10400
