14
645-12-5.pdb
O          3.20100        0.55800       -1.06400
C          2.47700        0.01600       -0.05100
O          1.44900       -0.61600       -0.23600
C          3.08400        0.28300        1.23100
O          4.22200        1.05200        1.28300
C          4.56300        1.13900        2.60000
C          3.68700        0.44400        3.39800
C          2.72700       -0.10700        2.51200
N          5.72800        1.90800        2.90400
O          6.03800        1.98900        4.09900
O          6.33200        2.42800        1.95600
H          3.99400        1.02300       -0.72500
H          3.73300        0.34900        4.47600
H          1.87100       -0.72200        2.76200
