18
645-09-0.pdb
N          1.09600        0.03300        0.16700
C          2.43900       -0.15100       -0.00100
O          3.04100       -1.02700        0.60500
C          3.13000        0.72700       -0.97900
C          2.66700        2.02000       -1.26200
C          3.34800        2.82700       -2.17700
C          4.49700        2.35000       -2.81000
C          4.96700        1.06200       -2.51500
C          4.29100        0.24700       -1.60000
N          6.18300        0.56700       -3.17300
O          6.75900        1.32900       -3.96300
O          6.55800       -0.58200       -2.90500
H          0.62400       -0.63800        0.76100
H          0.52900        0.56400       -0.47800
H          1.79500        2.42400       -0.75300
H          2.98900        3.83200       -2.38800
H          5.01700        2.99300       -3.51800
H          4.65000       -0.75400       -1.36200
