20
64559-06-4.pdb
C          1.38900        0.64900       -0.39000
O          2.51500       -0.06600        0.10800
C          3.18800       -0.85400       -0.78600
C          2.82600       -1.06900       -2.11500
C          3.59900       -1.90100       -2.92500
C          4.74400       -2.51500       -2.41300
C          5.12700       -2.30700       -1.08100
C          4.33000       -1.48100       -0.27200
C          6.36000       -2.94400       -0.53000
N          7.01600       -2.27000        0.47000
S          7.02100       -4.39300       -1.04400
H          0.97800        1.24400        0.43100
H          0.60600       -0.03600       -0.73000
H          1.68300        1.34100       -1.18700
H          1.94600       -0.60900       -2.55200
H          3.31200       -2.07200       -3.96000
H          5.33200       -3.14700       -3.07400
H          4.57300       -1.32700        0.77600
H          6.76400       -1.34200        0.78400
H          7.88300       -2.66000        0.82200
