22
6456-74-2.pdb
C          1.02700       -0.03800        0.02900
C          2.55700        0.05700        0.08000
C          3.03800        1.41600        0.60300
C          3.07400       -1.03400        1.03200
O          3.13500       -0.25300       -1.21600
C          2.87300        0.54700       -2.28700
O          2.16200        1.54500       -2.28300
C          3.51800       -0.02100       -3.54900
N          3.80600        1.05600       -4.51200
H          0.58500        0.09300        1.02200
H          0.71500       -1.01200       -0.36400
H          0.58700        0.71700       -0.62900
H          2.65300        1.61200        1.61000
H          2.72100        2.24400       -0.03600
H          4.13300        1.45100        0.63900
H          2.68200       -0.90200        2.04700
H          4.16900       -1.02500        1.08200
H          2.78800       -2.03200        0.67900
H          2.81400       -0.73600       -3.98700
H          4.45300       -0.53000       -3.29800
H          3.01000        1.70000       -4.51600
H          3.86900        0.66600       -5.45000
