9
6484-52-2.pdb
N          0.41600       -0.65600       -0.10600
O          2.01700        1.39500        0.14400
N          3.05600        0.76000       -0.11800
O          2.91500       -0.45800       -0.35800
O          4.16000        1.29600       -0.13100
H          1.38000       -0.96900       -0.35200
H          0.59500       -0.04900        0.70500
H         -0.20300       -1.43700        0.07400
H          0.13200       -0.02500       -0.86200
