25
6485-40-1.pdb
C          2.22300       -2.40800        1.58600
C          3.41600       -2.09000        0.72100
C          4.64400       -2.49900        1.08300
C          3.12700       -1.29900       -0.55200
C          2.75700       -2.25200       -1.70200
C          2.57600       -1.53500       -3.00800
C          3.03400       -0.30200       -3.27400
C          2.80100        0.41000       -4.56800
C          3.85100        0.40900       -2.24000
O          4.23900        1.55900       -2.43800
C          4.25800       -0.36300       -1.00200
H          2.51700       -2.86500        2.53800
H          1.55200       -3.10600        1.07500
H          1.66400       -1.49700        1.82300
H          4.80700       -3.06600        1.99500
H          5.52400       -2.30500        0.47900
H          2.25700       -0.65600       -0.35000
H          1.82200       -2.77000       -1.45800
H          3.52600       -3.02300       -1.83400
H          2.01700       -2.07400       -3.77100
H          2.21900       -0.20300       -5.26500
H          3.75200        0.65000       -5.05500
H          2.24700        1.33900       -4.40200
H          4.48600        0.35600       -0.20600
H          5.17600       -0.90700       -1.24900
