34
6485-97-8.pdb
O         -0.01900       -2.67800        0.12400
C         -0.01900       -1.45400        0.09000
C         -1.28800       -0.70000        0.07200
C         -2.50500       -1.39200        0.11100
C         -3.70500       -0.69200       -0.00300
C         -3.69500        0.69500       -0.15700
C         -2.48700        1.39000       -0.15600
C         -1.28300        0.69200       -0.02600
C         -0.01300        1.43500        0.00800
O         -0.01100        2.66100        0.00100
C          1.25400        0.68300        0.04200
C          2.46700        1.38700        0.03500
C          3.69800        0.71600       -0.01300
C          3.66800       -0.69200       -0.03900
C          2.46400       -1.39900       -0.00200
C          1.25300       -0.70600        0.04500
C          4.97300        1.46000       -0.08200
C          6.14900        0.95900        0.50400
C          7.36400        1.63400        0.38000
C          7.43000        2.83100       -0.32600
C          6.27700        3.36400       -0.89300
C          5.06400        2.68600       -0.76700
H         -2.51700       -2.47400        0.22800
H         -4.65100       -1.23200        0.01400
H         -4.63300        1.23600       -0.28000
H         -2.48700        2.47200       -0.26000
H          2.43400        2.47500        0.06200
H          4.59300       -1.26200       -0.10800
H          2.47900       -2.48800       -0.02600
H          6.13500        0.03000        1.07100
H          8.26600        1.22000        0.83300
H          8.37900        3.35100       -0.43100
H          6.32000        4.30000       -1.44300
H          4.18700        3.12800       -1.23600
