29
64943-90-4.pdb
C         -3.25500        0.05000       -0.00600
O         -2.44100        1.24000        0.00700
C         -1.19100        0.69700        0.01800
C         -0.01300        1.42000        0.03400
C          1.16100        0.65100        0.04000
N          2.48100        1.04600        0.04800
C          3.32900       -0.04000        0.04200
C          2.51700       -1.16300        0.03300
C          1.15800       -0.74900        0.03000
C         -0.06900       -1.44400        0.01600
C         -1.22000       -0.67700        0.00900
O         -2.48900       -1.17100       -0.00800
C          4.79000        0.07500        0.01400
C          5.45200        1.16600        0.59300
C          6.84700        1.25900        0.55200
C          7.59700        0.26000       -0.06600
C          6.95400       -0.83300       -0.64000
C          5.56100       -0.92400       -0.59900
H         -3.88800        0.06800       -0.90000
H         -3.89900        0.05700        0.88100
H         -0.00300        2.50300        0.03900
H          2.78100        2.01000        0.03100
H          2.86500       -2.18800        0.02900
H         -0.11300       -2.52600        0.00600
H          4.89800        1.95000        1.10300
H          7.34800        2.10900        1.00700
H          8.68100        0.33200       -0.09700
H          7.53400       -1.61600       -1.12100
H          5.08200       -1.78300       -1.06300
