42
64987-85-5.pdb
O          0.83300        2.22900       -2.41200
C         -0.02100        1.36600       -2.54900
C          0.15800        0.11200       -3.35000
C         -1.25500       -0.43500       -3.51100
C         -2.12500        0.52800       -2.74900
O         -3.34600        0.54800       -2.81300
N         -1.30400        1.38800       -2.10000
O         -1.81300        2.58700       -1.59500
C         -1.28600        2.91300       -0.37400
O         -0.86800        2.11500        0.45300
C         -1.23500        4.42700       -0.27200
C         -0.00000        4.90000        0.49500
C          0.06500        6.42700        0.53100
C         -1.22000        7.06000        1.09700
C         -2.46300        6.52000        0.36600
C         -2.51000        4.99200        0.33800
C         -1.11600        8.60000        1.01200
N         -2.27400        9.28400        1.55800
C         -2.45000        9.58400        2.86900
O         -1.70300        9.39600        3.80700
C         -3.77200       10.21700        2.98500
C         -4.30400       10.27800        1.76400
C         -3.34400        9.68800        0.83000
O         -3.53900        9.59800       -0.36800
H          0.81400       -0.58800       -2.82600
H          0.59100        0.36700       -4.32300
H         -1.35000       -1.44600       -3.10800
H         -1.54900       -0.43100       -4.56600
H         -1.13400        4.80700       -1.30000
H          0.90700        4.50800        0.02000
H         -0.01200        4.50700        1.51900
H          0.24000        6.79800       -0.48800
H          0.93000        6.73600        1.13000
H         -1.30400        6.77600        2.15500
H         -2.47600        6.89700       -0.66500
H         -3.37600        6.88100        0.85100
H         -3.38400        4.66700       -0.24000
H         -2.64800        4.60600        1.35600
H         -0.98900        8.91200       -0.03100
H         -0.23400        8.93300        1.57300
H         -4.18900       10.54300        3.92200
H         -5.26600       10.66200        1.47000
