15
65-71-4.pdb
C          2.66100        0.99900        0.04200
C          1.20300        0.68000        0.01100
C          0.22700        1.59600       -0.01000
N         -1.09000        1.23200       -0.02800
C         -1.51900       -0.06600       -0.02000
O         -2.71000       -0.35700       -0.02700
N         -0.53400       -1.01100       -0.00300
C          0.80900       -0.75500        0.00800
O          1.64300       -1.65400        0.01400
H          2.83900        2.07900        0.04600
H          3.16600        0.58100       -0.83500
H          3.12500        0.58400        0.94300
H          0.42900        2.66300       -0.01200
H         -1.82000        1.93500       -0.04000
H         -0.82200       -1.97600       -0.00300
