25
65-82-7.pdb
C          0.86300       -0.34800        1.78200
S          2.55600       -0.43200        2.41200
C          3.39200       -0.95100        0.88000
C          4.89700       -1.14300        1.06500
C          5.29800       -2.23600        2.07000
N          4.71400       -3.55500        1.80500
C          4.91600       -4.27400        0.65800
C          4.19300       -5.59000        0.59700
O          5.64600       -3.86800       -0.24000
C          6.83000       -2.29100        2.22200
O          7.50200       -2.71800        1.12700
O          7.41500       -1.94800        3.24200
H          0.19900        0.00200        2.57700
H          0.53000       -1.33900        1.46300
H          0.80000        0.35000        0.94300
H          3.22500       -0.17700        0.12300
H          2.93100       -1.87500        0.51900
H          5.35500       -0.19100        1.36700
H          5.32500       -1.36400        0.07900
H          4.92700       -1.96300        3.06400
H          4.04200       -3.89400        2.48500
H          3.91100       -5.93700        1.59500
H          4.85300       -6.34100        0.15100
H          3.29500       -5.47900       -0.01200
H          6.90700       -3.02600        0.39900
