30
6515-37-3.pdb
O         -1.57400        1.13600       -4.89000
C         -1.89000        0.63900       -3.66100
C         -2.37600        1.47800       -2.66200
C         -2.84900        0.92100       -1.47600
C         -2.88700       -0.47100       -1.31100
C         -2.23600       -1.27900       -2.26400
C         -1.75700       -0.73000       -3.45400
C         -3.71200       -1.05900       -0.17100
C         -4.66800       -2.15900       -0.67400
C         -4.75400       -3.27400        0.31100
O         -5.77700       -3.89700        0.57100
C         -3.43800       -3.69200        0.77700
C         -3.04800       -5.02300        0.71700
C         -1.70400       -5.32400        0.91500
C         -0.79600       -4.30900        1.26600
C         -1.21400       -2.99200        1.36300
C         -2.52700       -2.67700        1.04200
O         -2.85300       -1.36000        0.93800
H         -2.02500        1.99300       -4.98900
H         -2.41100        2.55300       -2.79500
H         -3.24400        1.57500       -0.70000
H         -2.15200       -2.35500       -2.12400
H         -1.34200       -1.36000       -4.22800
H         -4.36400       -0.26300        0.21100
H         -4.32900       -2.62700       -1.60900
H         -5.65500       -1.74000       -0.89000
H         -3.76000       -5.79300        0.43300
H         -1.35100       -6.34200        0.76700
H          0.24800       -4.55600        1.41400
H         -0.51500       -2.20200        1.62200
