30
6515-36-2.pdb
O          1.18300        0.16500       -0.02600
C          2.54400        0.08900       -0.00400
C          3.19400       -1.14100        0.07800
C          4.58800       -1.17800        0.08600
C          5.31100        0.01800        0.00800
C          6.78000       -0.00900       -0.07100
O          7.41000       -1.04600        0.10700
C          7.42800        1.28200       -0.46100
C          6.68900        2.40300        0.25900
O          5.30700        2.45400       -0.14500
C          4.65700        1.25000       -0.05600
C          3.26300        1.28200       -0.07100
C          7.38400        3.71900       -0.05300
C          7.02000        4.49800       -1.16200
C          7.76500        5.62500       -1.51500
C          8.87800        5.99200       -0.76200
C          9.23500        5.24700        0.35900
C          8.49300        4.11800        0.71300
H          0.81600       -0.73400        0.01600
H          2.63900       -2.07300        0.12100
H          5.10800       -2.13200        0.13000
H          7.36200        1.37600       -1.55200
H          8.48500        1.25000       -0.17300
H          6.70300        2.25500        1.34900
H          2.73600        2.22900       -0.13500
H          6.16200        4.22000       -1.77200
H          7.48400        6.20700       -2.38800
H          9.46900        6.85700       -1.05200
H         10.10100        5.53500        0.94900
H          8.80500        3.53600        1.57800
