28
65195-20-2.pdb
O          0.98100        0.46900        2.15200
C          0.28900        0.26000        0.98300
C         -0.34600       -0.97500        0.80300
C         -1.03300       -1.24300       -0.37900
C         -1.07100       -0.28500       -1.38500
C         -0.43200        0.94400       -1.19900
C          0.25000        1.26100       -0.00800
N          0.75800        2.55400        0.12400
C          0.87800        3.15700        1.45100
C          0.70900        4.67000        1.29500
C          1.70200        5.24600        0.28500
C          1.67300        4.47900       -1.03900
C          1.79600        2.96800       -0.82400
H          0.88200       -0.31600        2.71400
H         -0.32100       -1.73700        1.57700
H         -1.54300       -2.19300       -0.51300
H         -1.61200       -0.47900       -2.30800
H         -0.51500        1.69400       -1.98300
H          1.85200        2.92800        1.89900
H          0.09100        2.80800        2.13000
H          0.83300        5.16200        2.26600
H         -0.31200        4.88200        0.95300
H          2.71300        5.20500        0.70900
H          1.47000        6.30200        0.10500
H          2.48400        4.83200       -1.68800
H          0.73100        4.69300       -1.55400
H          2.78700        2.72000       -0.42500
H          1.70800        2.46900       -1.79600
