20
652-67-5.pdb
O          0.96900        0.28600        0.29400
C          2.37600        0.11500        0.10500
C          3.13400        0.69900        1.29600
O          3.64100        1.99700        0.92800
C          3.26300        2.25800       -0.42500
C          1.97500        3.05900       -0.54600
O          2.19700        4.46500       -0.63900
C          1.34300        2.49000       -1.81300
O          1.94400        1.20900       -2.09100
C          2.90100        0.94200       -1.06500
H          0.67100       -0.40500        0.91100
H          2.56500       -0.95400       -0.02900
H          3.99400        0.07900        1.56500
H          2.49500        0.82600        2.17600
H          4.09200        2.76000       -0.93700
H          1.32500        2.90200        0.32100
H          2.87600        4.62500       -1.31500
H          1.50000        3.13900       -2.68200
H          0.26400        2.35300       -1.69000
H          3.78500        0.45900       -1.49800
