31
6521-29-5.pdb
C          0.94000        0.02100       -0.06700
C          2.45900        0.03500       -0.01100
C          3.00700       -1.29700        0.49200
C          4.53400       -1.29800        0.56800
C          5.02600       -2.63500        1.09700
O          6.45300       -2.70200        1.09700
C          6.99500       -2.87600        2.32600
O          6.70100       -2.24800        3.33100
C          7.87700       -4.07700        2.31500
C          8.45300       -4.50400        3.51900
C          9.17600       -5.70100        3.56400
C          9.31600       -6.46300        2.40900
O          9.98500       -7.64700        2.40400
C          8.76000       -6.04600        1.20400
C          8.04000       -4.85100        1.15600
H          0.56500        0.98500       -0.42600
H          0.51200       -0.16300        0.92400
H          0.57800       -0.75800       -0.74700
H          2.78800        0.84500        0.65000
H          2.85600        0.24700       -1.01000
H          2.67400       -2.10400       -0.17400
H          2.59200       -1.51200        1.48500
H          4.89000       -0.49000        1.22000
H          4.96800       -1.10700       -0.42100
H          4.68900       -3.43700        0.43000
H          4.60500       -2.84700        2.08800
H          8.32000       -3.92200        4.42800
H          9.60400       -6.02800        4.50800
H         10.31100       -7.82600        3.30500
H          8.86400       -6.65600        0.31500
H          7.59400       -4.55400        0.21100
