29
65405-70-1.pdb
C          0.96400        0.04600        0.05000
C          2.48400        0.05800        0.06200
C          3.02100        1.26000        0.83700
C          4.54900        1.27300        0.85100
C          5.07700        2.48000        1.62600
C          6.57700        2.48400        1.65300
C          7.30500        2.46500        2.77900
C          8.80600        2.46000        2.79000
C          9.35700        3.87500        2.90000
C         10.86300        3.89900        2.92000
O         11.57900        2.90300        2.88500
H          0.59600       -0.82000       -0.50800
H          0.57000        0.95000       -0.42400
H          0.56600       -0.01000        1.06800
H          2.85300        0.08400       -0.97000
H          2.84900       -0.87100        0.51400
H          2.64500        1.23100        1.86600
H          2.65000        2.18600        0.38200
H          4.92600        1.29900       -0.17900
H          4.92100        0.34700        1.30600
H          4.67100        2.47300        2.64500
H          4.73400        3.40700        1.15200
H          7.08000        2.51500        0.68700
H          6.80900        2.44100        3.74800
H          9.19200        1.97200        1.88600
H          9.14900        1.84800        3.63400
H          9.00300        4.36300        3.81500
H          9.03300        4.48100        2.04500
H         11.31200        4.90600        2.97400
