27
6554-98-9.pdb
O          2.29800        0.08600        0.11400
C          0.93600        0.02400        0.07500
C          0.27600       -1.05500       -0.49900
C         -1.12400       -1.07200       -0.52300
C         -1.86400       -0.02000        0.03700
C         -1.17300        1.06200        0.59900
C          0.22400        1.08200        0.62300
C         -3.33500        0.03000       -0.01900
C         -4.13700       -1.04800       -0.01000
C         -5.60600       -0.99900       -0.10900
C         -6.28300        0.01500       -0.80100
C         -7.67400       -0.01000       -0.92700
C         -8.40700       -1.05600       -0.37200
C         -7.74800       -2.07600        0.31200
C         -6.35700       -2.04900        0.44000
H          2.65500       -0.71500       -0.30300
H          0.82200       -1.88200       -0.93900
H         -1.62400       -1.91000       -1.00100
H         -1.71600        1.90200        1.02700
H          0.75100        1.92400        1.06100
H         -3.75800        1.03100       -0.05700
H         -3.71600       -2.04600        0.08100
H         -5.73600        0.83100       -1.26800
H         -8.18300        0.78300       -1.46800
H         -9.48800       -1.08000       -0.47800
H         -8.31700       -2.89700        0.74100
H         -5.86400       -2.85800        0.97400
