43
65548-55-2.pdb
C          1.27600       -0.58600       -0.78800
O          2.49900       -0.14700       -0.20300
C          3.15000       -1.06000        0.58500
C          3.01600       -2.44000        0.39800
C          3.71700       -3.35200        1.19100
C          4.59200       -2.91200        2.18900
C          4.76800       -1.52800        2.33100
C          4.04100       -0.59900        1.56300
O          4.33500        0.71100        1.86300
C          3.28100        1.65300        1.70600
C          5.30500       -3.90600        3.03000
C          5.69200       -3.61600        4.27900
C          6.43400       -4.61900        5.05000
O          6.75600       -4.41200        6.21200
C          6.77400       -5.86500        4.35300
C          7.62000       -6.79500        4.95300
C          7.93500       -7.97700        4.28300
C          7.36800       -8.26400        3.03400
O          7.67200       -9.39000        2.31400
C          8.61400      -10.30800        2.85200
C          6.46900       -7.33800        2.45300
O          5.81000       -7.51500        1.25800
C          5.40400       -8.84700        0.94800
C          6.23500       -6.10500        3.09200
O          5.48000       -5.15400        2.43900
H          0.78900        0.28200       -1.24200
H          0.60000       -0.99300       -0.02800
H          1.45800       -1.31200       -1.58600
H          2.37900       -2.85100       -0.38000
H          3.57300       -4.41400        1.00900
H          5.48200       -1.12900        3.05300
H          3.52900        2.53200        2.30900
H          2.32300        1.26700        2.07000
H          3.21100        1.98800        0.66700
H          5.50100       -2.67500        4.77800
H          8.05500       -6.59000        5.93000
H          8.63400       -8.65400        4.76600
H          8.78300      -11.08700        2.10200
H          8.21800      -10.79100        3.75100
H          9.57800       -9.82800        3.04800
H          4.55700       -8.78900        0.25700
H          5.06600       -9.40400        1.83100
H          6.20500       -9.37800        0.42600
