29
6574-15-8.pdb
O          2.39300        0.49700       -0.68800
N          2.05200       -0.27000        0.22300
O          1.02300       -0.14300        0.90200
C          2.93600       -1.40100        0.52800
C          4.11700       -1.57900       -0.19700
C          4.96900       -2.63900        0.13100
C          4.67700       -3.52900        1.18000
C          3.47100       -3.33500        1.87100
C          2.60200       -2.28400        1.55600
N          5.60500       -4.49200        1.55000
C          5.62400       -5.01900        2.91600
C          7.07200       -5.32300        3.29600
C          7.73400       -6.26000        2.28800
C          7.57300       -5.75000        0.85500
C          6.11500       -5.41600        0.53200
H          4.40400       -0.89700       -0.99500
H          5.91000       -2.73100       -0.40800
H          3.18200       -4.00700        2.67500
H          1.68700       -2.16500        2.13200
H          5.00600       -5.92300        2.98400
H          5.23800       -4.29300        3.64000
H          7.11000       -5.76100        4.29900
H          7.63600       -4.38100        3.33400
H          7.28800       -7.25700        2.37300
H          8.79900       -6.36100        2.52600
H          7.95000       -6.50000        0.15100
H          8.18500       -4.84800        0.72400
H          5.51100       -6.33400        0.53300
H          6.06300       -5.00800       -0.48500
