31
658-79-7.pdb
N          2.89100        0.03500        0.99500
C          3.70400       -0.89400        0.18700
C          4.25700       -0.19200       -1.05700
O          4.59600       -0.79900       -2.06600
N          4.43900        1.17100       -0.91300
C          4.81700        2.01700       -2.06200
C          4.22000        3.43600       -1.98200
C          2.70800        3.52800       -1.92900
C          2.11500        4.62500       -1.28100
C          0.72500        4.72700       -1.17100
C         -0.07700        3.73700       -1.72400
O         -1.43300        3.76300       -1.59700
C          0.48600        2.68100       -2.42800
C          1.87400        2.58400       -2.54400
C          6.34500        2.15100       -2.15900
O          7.01500        1.48300       -1.18300
O          6.92300        2.81800       -3.00100
H          2.46100       -0.50900        1.74800
H          2.10000        0.35100        0.42700
H          3.09200       -1.74400       -0.13100
H          4.55000       -1.25600        0.77800
H          3.96600        1.58500       -0.10700
H          4.49900        1.51000       -2.98000
H          4.55600        4.02900       -2.84200
H          4.62800        3.92800       -1.08700
H          2.73400        5.41000       -0.85000
H          0.29300        5.57800       -0.65400
H         -1.67700        4.51400       -1.03100
H         -0.15400        1.93000       -2.88500
H          2.28100        1.75600       -3.11800
H          6.36900        0.99200       -0.63800
