17
65873-72-5.pdb
C          3.05200        1.26200       -0.32900
O          2.53000       -0.04300       -0.08300
C          3.27700       -0.74700        0.83800
C          2.84900       -2.03300        1.13700
C          3.59700       -2.79200        2.03900
C          4.74200       -2.22800        2.60000
C          5.58100       -2.98900        3.53800
O          6.59400       -2.50600        4.03000
C          5.08700       -0.93200        2.25100
N          4.37500       -0.17800        1.38200
H          2.46900        1.71200       -1.13700
H          4.09600        1.22400       -0.66000
H          2.94500        1.89400        0.55900
H          1.95700       -2.43600        0.67200
H          3.28500       -3.80200        2.28500
H          5.25600       -4.01400        3.77400
H          5.97100       -0.44800        2.66400
