20
66-77-3.pdb
O          1.27000       -0.67500       -0.10500
C          2.24200        0.05700        0.04200
C          3.01400        0.10000        1.30800
C          2.59100       -0.75000        2.34100
C          3.26400       -0.76600        3.55600
C          4.36400        0.06700        3.74400
C          4.80900        0.92500        2.72300
C          5.92300        1.75300        2.94100
C          6.38800        2.61400        1.94900
C          5.74300        2.66200        0.72400
C          4.63300        1.84800        0.49000
C          4.13500        0.95800        1.47500
H          2.56300        0.70800       -0.78200
H          1.73000       -1.40300        2.19900
H          2.93300       -1.42500        4.35500
H          4.87600        0.04300        4.70500
H          6.44400        1.73300        3.89700
H          7.25200        3.24600        2.13600
H          6.09700        3.33300       -0.05600
H          4.16800        1.93400       -0.48800
