20
66-97-7.pdb
O         -4.10200       -0.83300       -0.00700
C         -2.99400       -0.30900        0.00500
O         -1.82000       -1.04700        0.00000
C         -0.55400       -0.42000       -0.00100
C          0.55700       -1.26600       -0.00400
C          1.79200       -0.62700       -0.00500
O          3.00200       -1.25000        0.00200
C          3.94900       -0.27700        0.00100
C          3.36500        0.96900       -0.01200
C          1.96000        0.75500       -0.01100
C          0.81700        1.57900       -0.01200
C         -0.45000        0.97400        0.00100
C         -1.66800        1.76800        0.02500
C         -2.85700        1.15800        0.03000
H          0.47100       -2.34400       -0.00200
H          4.97300       -0.62500        0.01000
H          3.88800        1.91500       -0.01600
H          0.92600        2.65900       -0.01600
H         -1.59500        2.85000        0.04600
H         -3.78600        1.71500        0.05100
