19
660-88-8.pdb
N          2.74100        1.45000        0.13200
C          2.34500        0.04800        0.06100
C          2.92300       -0.63200       -1.18100
C          4.45400       -0.65200       -1.18900
C          4.99300       -1.31800       -2.45100
C          6.49800       -1.40100       -2.44800
O          7.11000       -0.19800       -2.48400
O          7.12100       -2.45200       -2.44800
H          2.33600        1.87000        0.96900
H          2.34200        1.95900       -0.65700
H          1.25200       -0.01600        0.03600
H          2.68500       -0.47100        0.96300
H          2.55400       -0.12700       -2.08300
H          2.54800       -1.66200       -1.22100
H          4.82300       -1.18500       -0.30400
H          4.84100        0.37100       -1.12000
H          4.67500       -0.78500       -3.35500
H          4.60200       -2.34000       -2.52900
H          6.49600        0.56000       -2.48700
