17
6622-92-0.pdb
C          0.94600        0.06100        0.06100
C          2.44200        0.02600        0.06200
C          3.12800       -1.12400        0.06000
C          4.61600       -1.08500        0.06300
O          5.22500       -2.15100        0.06800
N          5.23900        0.14400        0.05900
C          4.51200        1.21700        0.06000
C          5.21300        2.55200        0.05700
N          3.13900        1.21000        0.06400
H          0.51700       -0.94700        0.06000
H          0.57500        0.58200       -0.82700
H          0.57400        0.57900        0.95100
H          2.67100       -2.10400        0.05700
H          6.29900        2.41800        0.05800
H          4.92300        3.11900        0.94600
H          4.92400        3.11300       -0.83600
H          2.61700        2.07800        0.06400
