20
6624-49-3.pdb
O          1.30600       -0.42100        0.38800
C          2.42300        0.16500       -0.10800
O          2.74700        0.14800       -1.28200
C          3.19500        0.82700        0.98300
C          4.36700        1.50500        0.68400
C          5.07400        2.10000        1.73100
C          6.26200        2.81000        1.50100
C          6.96500        3.38300        2.56100
C          6.49400        3.24700        3.86500
C          5.30900        2.55200        4.11100
C          4.58400        1.97900        3.04900
C          3.38400        1.28100        3.23100
N          2.66900        0.70200        2.23600
H          1.27800       -0.26700        1.36300
H          4.71900        1.55900       -0.34200
H          6.64800        2.92800        0.49000
H          7.88300        3.93300        2.36800
H          7.05200        3.68300        4.69000
H          4.95800        2.45600        5.13700
H          2.95200        1.16800        4.22400
