28
6627-89-0.pdb
C          3.11000       -1.37200        0.69000
C          2.74200       -0.02700        0.04500
C          3.22200        0.06900       -1.40400
C          1.21000        0.10100        0.07200
O          3.22900        1.09600        0.81900
C          4.55400        1.20500        1.10600
O          5.44900        0.49300        0.68300
O          4.69700        2.21300        2.04200
C          5.51100        1.84300        3.12000
C          6.41700        2.78100        3.61100
C          7.14800        2.48500        4.76400
C          6.96400        1.26500        5.41900
C          6.05000        0.33400        4.92600
C          5.31500        0.62500        3.78100
H          2.65700       -2.20900        0.14800
H          2.76800       -1.41000        1.73100
H          4.18900       -1.54500        0.71200
H          2.79700       -0.73200       -2.01900
H          4.31100        0.00500       -1.47900
H          2.93500        1.03200       -1.84200
H          0.72800       -0.69100       -0.51100
H          0.89000        1.07100       -0.32500
H          0.83300        0.04800        1.10000
H          6.54800        3.73700        3.11300
H          7.85300        3.20900        5.16100
H          7.52400        1.04200        6.32400
H          5.89900       -0.61300        5.43900
H          4.58600       -0.09500        3.42300
