20
66373-25-9.pdb
C          3.34400        1.17600        0.58100
C          2.52500        0.04000        0.01300
O          1.33100        0.17200       -0.22400
C          3.20200       -1.25200       -0.23400
C          4.28600       -1.63800        0.53200
N          4.93200       -2.81500        0.39700
C          4.45400       -3.64400       -0.53000
N          5.06500       -4.86900       -0.66200
N          3.44400       -3.35700       -1.35600
C          2.81600       -2.16300       -1.20600
C          1.70000       -1.90700       -2.17600
H          2.76800        2.10400        0.52700
H          4.25700        1.31300       -0.00600
H          3.59000        0.98900        1.63200
H          4.68800       -1.01300        1.32400
H          6.00900       -4.83700       -0.30700
H          4.92200       -5.23500       -1.59400
H          1.72700       -2.64300       -2.98800
H          1.79700       -0.91900       -2.63600
H          0.72800       -1.99400       -1.68000
