41
66447-31-2.pdb
C          4.09900        1.90100       -2.55700
C          3.14100        2.31700       -1.44300
C          1.69800        2.28100       -1.95100
C          3.27800        1.42900       -0.18600
C          4.67700        1.44500        0.45900
N          4.66500        0.55900        1.64500
C          5.03100        2.86600        0.93900
O          4.15300        3.60400        1.38300
N          6.39000        3.15400        0.90100
C          6.98400        4.32500        1.42200
C          6.30800        5.18400        2.29100
C          6.90700        6.34500        2.78600
C          8.21200        6.68200        2.43800
C          8.90000        7.88300        2.92800
C         10.15400        8.10300        2.50700
C         10.87500        7.21300        1.58500
O         12.01600        7.47800        1.22500
O         10.20700        6.07600        1.16000
C          8.88900        5.81000        1.57900
C          8.29900        4.63600        1.07800
C          8.25600        8.85100        3.88000
H          3.89700        2.46100       -3.47600
H          4.00600        0.83400       -2.78300
H          5.13900        2.10300       -2.27900
H          3.36500        3.35800       -1.17900
H          1.40100        1.26700       -2.23800
H          1.57700        2.92700       -2.82600
H          1.00500        2.63700       -1.18100
H          3.00900        0.39600       -0.44400
H          2.53200        1.76300        0.54900
H          5.43100        1.07200       -0.24000
H          3.94800        0.91100        2.28700
H          5.54300        0.66200        2.15500
H          6.98900        2.52800        0.37300
H          5.29800        4.97700        2.63100
H          6.30400        6.95900        3.44600
H         10.71700        8.97200        2.83200
H          8.87400        4.00300        0.40800
H          7.26600        8.55400        4.23000
H          8.14300        9.83200        3.40600
H          8.87400        8.96800        4.77700
