31
66493-39-8.pdb
C          3.42500       -0.75700        1.13300
C          2.48800       -0.07300        0.14300
N          1.16500       -0.75100        0.19300
C          3.02900       -0.06100       -1.26400
C          3.24300        1.15200       -1.93100
C          3.75100        1.17400       -3.23900
C          4.07300       -0.01000       -3.92300
C          3.85600       -1.21700       -3.23800
C          3.33700       -1.24800       -1.93900
C          4.64000       -0.00400       -5.29600
C          5.47700        1.03300       -5.74900
C          6.03900        1.01100       -7.03100
C          5.78700       -0.05500       -7.88800
C          4.95800       -1.08900       -7.47200
C          4.38400       -1.05600       -6.19800
H          4.41300       -0.28300        1.12000
H          3.56600       -1.81900        0.90400
H          3.03400       -0.68600        2.15300
H          2.29700        0.95100        0.48400
H          1.23600       -1.73300       -0.09600
H          0.51300       -0.29400       -0.45900
H          0.75200       -0.72000        1.13100
H          3.03600        2.10800       -1.44900
H          3.89300        2.14200       -3.71900
H          4.11600       -2.16500       -3.70400
H          3.21200       -2.22400       -1.47300
H          5.72700        1.87100       -5.10400
H          6.68400        1.82400       -7.35500
H          6.23600       -0.07900       -8.87800
H          4.75800       -1.92600       -8.13700
H          3.72800       -1.87800       -5.92300
