39
66605-57-0.pdb
C         10.41200       -0.08800       -2.27300
C          9.57400        0.28500       -3.50300
C         10.24700        1.37300       -4.35100
C          9.42400       -0.97400       -4.37200
O          8.22200        0.67700       -3.12900
C          8.04200        1.75600       -2.32800
O          8.92700        2.43700       -1.83700
N          6.71200        1.98800       -2.13900
C          6.22000        3.04800       -1.25400
C          4.70700        2.87300       -1.02800
O          4.42600        1.56400       -0.52700
C          6.55200        4.44700       -1.82100
C          6.13100        5.61700       -0.96100
C          6.62800        5.77800        0.34000
C          6.26600        6.89000        1.10400
C          5.41500        7.85700        0.57200
C          4.92100        7.71100       -0.72200
C          5.27600        6.59800       -1.48400
H         11.39200       -0.48100       -2.56300
H          9.89700       -0.84600       -1.67100
H         10.59000        0.76500       -1.61300
H         11.23400        1.05200       -4.70000
H         10.38000        2.30700       -3.79800
H          9.63300        1.61600       -5.22700
H         10.39800       -1.35600       -4.69800
H          8.82100       -0.76900       -5.26400
H          8.90900       -1.77100       -3.82300
H          6.07400        1.27300       -2.46800
H          6.73700        2.90000       -0.29600
H          4.31500        3.59900       -0.30900
H          4.15700        2.98700       -1.96800
H          4.90500        1.46900        0.31500
H          6.10000        4.53700       -2.81800
H          7.63100        4.54900       -1.98600
H          7.31700        5.05100        0.76400
H          6.66100        7.01100        2.11000
H          5.14600        8.73000        1.16100
H          4.26700        8.47100       -1.14300
H          4.89200        6.51100       -2.49800
