28
6665-86-7.pdb
O          3.69500       -0.23800       -0.01000
C          2.36100        0.04200        0.00200
C          1.90100        1.35800        0.03500
C          0.52800        1.60200        0.03300
C         -0.36600        0.52600       -0.00200
C         -1.81400        0.76000       -0.02400
O         -2.29800        1.88400       -0.01800
C         -2.67100       -0.43500       -0.04200
C         -2.10900       -1.65200       -0.02000
O         -0.73800       -1.87300       -0.03400
C          0.10100       -0.78600       -0.02000
C          1.47200       -1.03100       -0.02000
C         -2.92700       -2.88600        0.03400
C         -2.47900       -4.06800       -0.57500
C         -3.21800       -5.25100       -0.47600
C         -4.41600       -5.27100        0.23400
C         -4.88000       -4.10700        0.84000
C         -4.14000       -2.92600        0.74300
H          4.19200        0.59700       -0.02300
H          2.59000        2.19700        0.06000
H          0.15400        2.62300        0.05900
H         -3.73800       -0.25400       -0.05500
H          1.85000       -2.04900       -0.03800
H         -1.54400       -4.08200       -1.13300
H         -2.85300       -6.16000       -0.94800
H         -4.98400       -6.19300        0.32100
H         -5.81200       -4.11700        1.39900
H         -4.51900       -2.04300        1.25200
