29
6665-67-4.pdb
O          2.14800       -0.39400        0.48300
C          0.81100       -0.24000        0.26900
C         -0.11200       -0.40000        1.29500
C         -1.47900       -0.29400        1.01200
C         -1.92900       -0.03500       -0.29400
C         -0.97000        0.17000       -1.29800
C          0.39500        0.06900       -1.01700
C         -3.38000       -0.02600       -0.59400
C         -3.90100        0.76100       -1.54700
C         -5.35100        0.74800       -1.77000
O         -5.87100        1.43800       -2.64300
C         -6.15600       -0.11400       -0.90400
C         -7.55100       -0.13100       -0.97900
O         -8.26100        0.66000       -1.84000
C         -8.28300       -0.97300       -0.14600
C         -7.61800       -1.81400        0.74800
C         -6.22200       -1.79300        0.82800
C         -5.49400       -0.92500        0.01300
O         -4.13000       -0.90000        0.18000
H          2.27900       -0.75100        1.37700
H          0.20600       -0.61200        2.31100
H         -2.19000       -0.42100        1.82600
H         -1.26200        0.38600       -2.32300
H          1.12700        0.21000       -1.80800
H         -3.32600        1.43200       -2.17000
H         -7.62100        1.17700       -2.38000
H         -9.36900       -0.97300       -0.19500
H         -8.18900       -2.48400        1.38800
H         -5.70900       -2.44700        1.52700
