25
6669-13-2.pdb
C          0.90800       -0.07900        0.11300
C          2.44300        0.00500        0.15600
C          3.00900        1.10700        1.06600
C          2.91600       -1.33400        0.76900
O          3.01800        0.05500       -1.16400
C          2.80600        1.09300       -2.02900
C          2.05500        2.24300       -1.79700
C          1.92000        3.23200       -2.77400
C          2.54500        3.08200       -4.00600
C          3.30500        1.94400       -4.25500
C          3.43400        0.95600       -3.27300
H          0.48500       -0.18000        1.11800
H          0.59500       -0.94600       -0.48100
H          0.42700        0.78100       -0.35300
H          2.64200        1.00600        2.09200
H          2.77500        2.11900        0.73600
H          4.10500        1.05400        1.08500
H          2.41700       -1.52900        1.72600
H          3.99700       -1.33200        0.95000
H          2.71200       -2.17500        0.09700
H          1.53900        2.42400       -0.86400
H          1.32300        4.11500       -2.56500
H          2.44200        3.85500       -4.76200
H          3.79700        1.82300       -5.21700
H          4.02700        0.07000       -3.48300
