28
66849-29-4.pdb
C          3.19600       -1.51800        0.26300
C          2.64100       -0.12700       -0.06500
N          1.14000       -0.18000        0.01400
C          0.53900       -0.69400        1.29200
C         -0.95900       -0.40800        1.26900
O         -1.11000        0.99400        1.05100
C          3.09100        0.43300       -1.40600
C          2.79100        1.76800       -1.73600
C          3.21000        2.32000       -2.94900
C          3.94500        1.55700       -3.85300
C          4.25400        0.23800       -3.54700
C          3.82600       -0.32300       -2.33900
H          4.28700       -1.54200        0.17500
H          2.78000       -2.28400       -0.40300
H          2.96600       -1.81100        1.29200
H          2.96600        0.56900        0.71900
H          0.75300        0.77600       -0.10600
H          0.77600       -0.69700       -0.79600
H          1.01900       -0.13800        2.10500
H          0.73700       -1.76300        1.37100
H         -1.43100       -0.69800        2.21300
H         -1.45000       -0.94300        0.44800
H         -1.70200        1.33700        1.75200
H          2.24900        2.41200       -1.04800
H          2.98000        3.35700       -3.19000
H          4.28400        1.99400       -4.79100
H          4.83900       -0.35400       -4.24700
H          4.11100       -1.35500       -2.15300
