37
66943-05-3.pdb
C          2.51800        1.68000       -0.45000
C          1.33800        2.65100       -0.43400
O          0.14700        1.86600       -0.39700
C         -1.01600        2.67100       -0.13500
C         -2.26700        1.80500       -0.26900
O         -2.28200        0.85600        0.79800
C         -3.24400       -0.19400        0.61700
C         -2.75600       -1.24600       -0.38300
O         -1.52400       -1.80500        0.08300
C         -0.68800       -2.22600       -0.99400
C          0.62400       -2.78100       -0.43800
O          1.32100       -1.73700        0.26100
C          2.64600       -1.53200       -0.22100
C          3.27900       -0.46600        0.67600
N          2.39500        0.74500        0.71400
H          3.48000        2.19600       -0.36900
H          2.49100        1.07200       -1.35800
H          1.34400        3.26500       -1.34000
H          1.39300        3.29800        0.44600
H         -1.05700        3.49400       -0.85600
H         -0.93700        3.06800        0.88300
H         -2.24900        1.29800       -1.23800
H         -3.16600        2.42600       -0.20000
H         -4.20700        0.22700        0.30900
H         -3.37600       -0.66300        1.59800
H         -2.62100       -0.79600       -1.37100
H         -3.49000       -2.05400       -0.47400
H         -0.46800       -1.35900       -1.63000
H         -1.20400       -2.99200       -1.58000
H          1.22700       -3.18800       -1.25500
H          0.42300       -3.57800        0.28500
H          2.60100       -1.19500       -1.25900
H          3.22200       -2.46300       -0.16500
H          4.27600       -0.16100        0.34300
H          3.32800       -0.82200        1.71000
H          2.50200        1.24400        1.60300
H          1.40900        0.39600        0.72600
