23
67-21-0.pdb
C          1.02200        0.13000        0.09900
C          2.53500        0.20000       -0.03000
S          2.97000        1.04600       -1.58000
C          4.78600        0.97400       -1.46300
C          5.39000        1.64200       -2.69900
C          6.92100        1.68400       -2.69000
N          7.54200        0.33200       -2.76100
C          7.45000        2.50900       -3.88300
O          8.61000        1.98000       -4.36100
O          6.93600        3.51500       -4.34200
H          0.74900       -0.37900        1.03000
H          0.57400       -0.43200       -0.72800
H          0.57400        1.12900        0.12400
H          2.95300       -0.81100       -0.03800
H          2.95500        0.75000        0.81700
H          5.09000       -0.07300       -1.40000
H          5.11200        1.49100       -0.55300
H          5.01700        2.67300       -2.76300
H          5.04700        1.13400       -3.61100
H          7.28800        2.17900       -1.78400
H          7.06400       -0.20600       -3.49300
H          7.33900       -0.17400       -1.89700
H          8.77900        1.16700       -3.82300
