21
6705-03-9.pdb
C          1.29300       -0.69000       -0.49700
O          2.45300       -0.02800        0.00100
C          3.11900       -0.64900        1.02200
C          2.73400       -1.84300        1.62700
C          3.49700       -2.38100        2.66600
C          4.67500       -1.76000        3.09800
N          5.30500       -2.27300        4.24900
C          5.04300       -0.53000        2.51400
C          4.27500        0.00500        1.46400
C          6.31100        0.12600        2.94700
O          6.32700        1.47200        2.83500
O          7.26300       -0.50400        3.38200
H          0.87000       -0.07900       -1.29900
H          0.52700       -0.78800        0.28100
H          1.54900       -1.66700       -0.92200
H          1.84400       -2.38400        1.32200
H          3.16000       -3.29900        3.14100
H          5.25400       -3.28400        4.32900
H          6.27400       -1.94300        4.33600
H          4.57500        0.91700        0.95600
H          5.46400        1.88400        2.63700
