18
672-89-9.pdb
C          3.14100        0.57400        1.03100
O          2.46600        0.18400       -0.16200
C          3.10700       -0.74600       -0.94300
C          4.03400       -1.62900       -0.54500
C          4.68000       -2.52800       -1.51500
O          5.52100       -3.34000       -1.13700
O          4.32200       -2.40400       -2.82800
C          3.33300       -1.47200       -3.22100
C          2.72200       -0.68600       -2.32600
C          3.05400       -1.43300       -4.68800
H          2.57900        1.39400        1.48500
H          4.14700        0.94200        0.79900
H          3.18400       -0.24800        1.75300
H          4.36200       -1.74300        0.47700
H          1.95800        0.02700       -2.62100
H          3.68800       -2.14600       -5.22500
H          3.26100       -0.43700       -5.09200
H          2.01000       -1.69000       -4.89300
