17
672-15-1.pdb
N          0.94600       -0.18300       -0.19500
C          2.44400       -0.13700       -0.11400
C          2.95500       -1.40500        0.57200
C          4.46300       -1.43400        0.79200
O          4.80900       -2.63000        1.48600
C          2.99400        0.03300       -1.54600
O          1.98700        0.16600       -2.44800
O          4.17400        0.08200       -1.85200
H          0.57800        0.08500        0.72300
H          0.65500       -1.16300       -0.29700
H          2.72000        0.76300        0.44600
H          2.66800       -2.29500       -0.00200
H          2.46200       -1.51500        1.54900
H          4.80400       -0.57600        1.37900
H          5.01000       -1.44900       -0.15500
H          4.46500       -2.56300        2.39100
H          1.15300        0.16300       -1.91400
