39
67299-52-9.pdb
O          1.20800       -0.41500       -0.12000
C          2.47500        0.05500       -0.07300
O          2.95700        0.51500        0.95000
C          3.21500       -0.08200       -1.39400
C          3.89400       -1.45300       -1.45800
C          4.73800       -1.61200       -2.72200
C          5.77100       -0.48900       -2.85300
C          5.08700        0.88400       -2.81800
C          4.23300        1.05400       -1.56000
N          6.55700       -0.65400       -4.06600
C          7.73400       -1.35000       -4.09000
O          8.24400       -1.88800       -3.11600
O          8.28200       -1.27900       -5.32500
C          9.69700       -1.51000       -5.36200
C         10.08800       -2.76600       -6.10300
C         10.31600       -2.74300       -7.48700
C         10.78600       -3.88100       -8.14700
C         11.02200       -5.05600       -7.43500
C         10.77500       -5.09700       -6.06400
C         10.30400       -3.96100       -5.40200
H          0.93800       -0.77000       -0.98800
H          2.48600        0.00800       -2.21000
H          3.13900       -2.24700       -1.42100
H          4.53300       -1.59400       -0.57600
H          4.08100       -1.61600       -3.60100
H          5.24000       -2.58600       -2.70400
H          6.45700       -0.54900       -1.99800
H          4.45700        1.01400       -3.70700
H          5.84100        1.67900       -2.85300
H          3.70900        2.01800       -1.59900
H          4.89500        1.10100       -0.68600
H          6.23900       -0.28600       -4.95100
H         10.15800       -1.50400       -4.36700
H         10.13500       -0.64700       -5.87900
H         10.15700       -1.82900       -8.05400
H         10.98300       -3.84800       -9.21500
H         11.40100       -5.93700       -7.94700
H         10.96400       -6.01100       -5.50600
H         10.13300       -4.00300       -4.32700
