17
673-32-5.pdb
C          4.11000        0.06200        0.10100
C          2.65200       -0.02300        0.03200
C          1.45300       -0.05400       -0.00400
C          0.02300       -0.02400       -0.01400
C         -0.63800        1.20800       -0.01700
C         -2.03100        1.25600        0.00600
C         -2.76900        0.07200        0.02900
C         -2.11200       -1.15900        0.02400
C         -0.71600       -1.20800        0.00100
H          4.57800       -0.56200       -0.66700
H          4.47300       -0.27100        1.07800
H          4.44400        1.09300       -0.04900
H         -0.06700        2.13400       -0.03000
H         -2.54000        2.21600        0.01000
H         -3.85400        0.11000        0.05400
H         -2.68800       -2.08100        0.04100
H         -0.21300       -2.17200        0.00200
