43
674792-06-4.pdb
C          2.90500        0.17500        1.84800
C          4.42500        0.03700        1.81200
C          4.98800        0.03800        3.24100
C          4.88700       -1.22400        1.04700
C          4.47600       -1.33300       -0.45300
C          5.01100       -0.16800       -1.34200
N          6.48500       -0.14000       -1.45600
C          6.95200       -1.42400       -2.01100
C          6.43400       -2.65900       -1.25300
N          4.97600       -2.59900       -1.02800
C          4.21700       -3.62500       -1.58000
O          4.74700       -4.53000       -2.20000
O          2.85800       -3.53200       -1.34900
C          2.01600       -4.57800       -1.93400
C          2.35100       -5.96800       -1.36400
C          0.52300       -4.24900       -1.70000
C          2.23600       -4.60900       -3.45100
H          2.62100        1.13600        2.29200
H          2.44400       -0.62200        2.44000
H          2.47300        0.14500        0.84400
H          4.83700        0.92900        1.32800
H          4.59200       -0.79200        3.83600
H          4.73700        0.97400        3.75300
H          6.08100       -0.04300        3.22900
H          4.51900       -2.11900        1.56700
H          5.97900       -1.27400        1.13700
H          3.38200       -1.32400       -0.51500
H          4.67100        0.80600       -0.97500
H          4.59100       -0.26500       -2.35300
H          6.88700       -0.03000       -0.52500
H          8.04800       -1.43200       -2.00100
H          6.64600       -1.48100       -3.06300
H          6.91300       -2.73200       -0.27200
H          6.72500       -3.55700       -1.80600
H          2.20300       -6.03600       -0.28000
H          3.39600       -6.22100       -1.54700
H          1.74400       -6.74800       -1.83700
H          0.24900       -4.21500       -0.63600
H         -0.12900       -4.99100       -2.17900
H          0.27100       -3.26500       -2.11600
H          3.26500       -4.84500       -3.69900
H          2.02000       -3.63500       -3.89700
H          1.61400       -5.37200       -3.92800
