40
674792-05-3.pdb
C          0.69100       -0.40400        2.07700
C          2.19500       -0.24500        2.32300
C          2.50600        1.23300        2.58100
C          3.02700       -0.85400        1.14800
C          4.56500       -0.68900        1.34200
N          5.10100       -1.45100        2.49000
C          4.77400       -2.88200        2.32200
C          3.27900       -3.15600        2.06700
N          2.75100       -2.30200        1.00000
C          2.23700       -2.91600       -0.13300
O          2.13400       -4.13400       -0.21700
O          1.87600       -2.05400       -1.12500
C          1.36000       -2.59900       -2.37700
C          0.04300       -3.36300       -2.16500
C          1.05600       -1.39500       -3.28700
C          2.41500       -3.46100       -3.08900
H          0.11900        0.00100        2.92000
H          0.41100       -1.45700        1.97400
H          0.37900        0.12400        1.17000
H          2.42400       -0.78000        3.25200
H          2.31400        1.84300        1.69200
H          3.54500        1.38200        2.88700
H          1.88400        1.61800        3.39700
H          2.75300       -0.33200        0.22400
H          4.83700        0.36400        1.46100
H          5.08300       -1.02600        0.43400
H          4.65600       -1.11500        3.34500
H          5.09100       -3.42600        3.21900
H          5.36500       -3.27800        1.48800
H          2.69500       -2.95700        2.97100
H          3.14700       -4.21800        1.83600
H         -0.70300       -2.72200       -1.68300
H          0.16200       -4.23900       -1.52300
H         -0.36900       -3.71600       -3.11800
H          0.31100       -0.73400       -2.83100
H          0.67200       -1.71800       -4.26300
H          1.95400       -0.79100       -3.45500
H          2.67700       -4.35800       -2.52200
H          3.34500       -2.89700       -3.22700
H          2.06300       -3.79200       -4.07200
