17
675-09-2.pdb
C          0.97800       -0.04900       -0.08200
C          2.47100       -0.11300       -0.08200
C          3.17600       -1.25200       -0.08100
C          4.61700       -1.20300       -0.07700
C          5.23300       -0.01300       -0.07700
C          4.47100        1.24900       -0.08000
O          5.05800        2.32600       -0.08100
O          3.10700        1.15200       -0.08100
C          5.38200       -2.49100       -0.07300
H          0.52700       -1.04700       -0.08400
H          0.62200        0.48300       -0.97000
H          0.62200        0.48100        0.80600
H          2.67800       -2.21700       -0.08200
H          6.31100        0.08700       -0.07400
H          4.72300       -3.36500       -0.07500
H          6.01400       -2.55800        0.82000
H          6.02200       -2.56000       -0.95900
