12
67525-74-0.pdb
O          1.04600        0.20400       -0.05700
C          2.47600        0.07300       -0.07500
C          2.96300       -0.73300        1.11800
O          2.51600       -2.11300        1.00300
C          4.51600       -0.69300        1.06300
O          5.06100        0.44100        1.15200
O          5.04300       -1.84100        0.92300
H          0.78900        0.39200       -0.97400
H          2.89000        1.08600       -0.08700
H          2.74800       -0.42900       -1.01100
H          2.58800       -0.34000        2.06700
H          3.37800       -2.59400        0.93100
