30
67565-48-4.pdb
O          1.20400        0.07800       -0.19900
N          2.40500        0.15800        0.10100
O          3.01300        1.22200        0.28500
C          3.15800       -1.09400        0.24600
C          2.51300       -2.32000        0.05000
C          3.23400       -3.50800        0.19300
C          4.60000       -3.48200        0.51800
C          5.39100       -4.75700        0.73000
O          4.86400       -5.81500       -0.07200
C          5.46800       -7.03700        0.04200
C          6.57800       -7.33200        0.83500
C          7.10300       -8.62800        0.85600
C          6.51500       -9.63300        0.08400
C          7.07500      -10.99900        0.09500
O          8.05500      -11.29400        0.76700
C          5.39800       -9.35100       -0.70300
C          4.88300       -8.05200       -0.72400
C          5.22800       -2.24300        0.72300
C          4.51500       -1.04900        0.58600
H          1.45700       -2.37000       -0.20900
H          2.72200       -4.45800        0.04600
H          5.32600       -5.01600        1.79400
H          6.43400       -4.57500        0.44400
H          7.06300       -6.58200        1.45100
H          7.96900       -8.85000        1.47700
H          6.56600      -11.74600       -0.53800
H          4.92000      -10.12400       -1.29900
H          4.01400       -7.82800       -1.34000
H          6.28200       -2.19900        0.99300
H          5.02700       -0.10300        0.75000
