50
67589-47-3.pdb
C          5.40900        2.71400       -0.81800
C          4.73100        1.42200       -0.38600
C          5.22600        0.25500       -1.23400
C          4.61700       -1.08500       -0.81100
C          5.11200       -2.25700       -1.68300
C          4.42800       -3.56600       -1.26300
C          4.91600       -4.75400       -2.09000
C          6.44400       -4.90900       -2.05100
C          7.12400       -3.59800       -2.45000
C          6.63800       -2.42000       -1.61900
C          6.89900       -6.02200       -2.98500
O          7.76900       -5.91900       -3.83900
O          6.22300       -7.19300       -2.66600
C          5.52700       -7.86900       -3.68500
C          5.73500       -7.68200       -5.04800
C          4.89000       -8.30800       -5.96900
C          3.84400       -9.12200       -5.53100
O          2.93500       -9.75300       -6.33800
C          3.06500       -9.51700       -7.74000
C          1.96000      -10.26700       -8.45900
C          3.66800       -9.33200       -4.16100
C          4.50900       -8.71000       -3.23600
H          5.05700        3.55400       -0.21200
H          5.19300        2.93500       -1.86800
H          6.49600        2.64300       -0.70300
H          3.64400        1.52600       -0.48200
H          4.95200        1.23600        0.67200
H          6.31600        0.21500       -1.14300
H          4.99400        0.44200       -2.29000
H          3.52300       -1.02000       -0.88400
H          4.85200       -1.28000        0.24300
H          4.83000       -2.04800       -2.72400
H          3.34100       -3.47400       -1.37600
H          4.61900       -3.76600       -0.20100
H          4.58000       -4.63700       -3.12900
H          4.43100       -5.66300       -1.71300
H          6.76500       -5.18100       -1.03700
H          6.93800       -3.38600       -3.51200
H          8.21100       -3.69200       -2.34100
H          7.13900       -1.52400       -1.99900
H          6.95600       -2.55000       -0.57700
H          6.53100       -7.05300       -5.43300
H          5.07500       -8.12600       -7.02200
H          4.03400       -9.88600       -8.09400
H          2.96500       -8.44600       -7.95700
H          2.00100      -11.33500       -8.22300
H          2.04900      -10.13800       -9.54100
H          0.97800       -9.90400       -8.14000
H          2.86000       -9.96900       -3.81100
H          4.34700       -8.85900       -2.17200
