56
67589-54-2.pdb
C          0.89600       -5.57400        1.01800
C          2.41300       -5.54000        1.01000
C          2.94000       -4.13400        0.72700
C          4.46600       -4.14200        0.70400
C          5.04200       -2.76500        0.37700
C          6.58200       -2.76300        0.33300
C          7.08600       -1.33800        0.06400
C          8.60500       -1.28600       -0.03700
C          9.14800       -2.26600       -1.08300
C          8.65900       -3.68500       -0.82200
C          7.13700       -3.73800       -0.72100
C         10.66400       -2.20700       -1.06700
O         11.37000       -2.50800       -0.11400
O         11.11200       -1.68700       -2.27400
C         12.05800       -0.66600       -2.14100
C         13.14200       -0.65100       -3.01600
C         14.01300        0.44300       -3.01500
C         13.79200        1.51800       -2.14700
O         14.57000        2.63600       -2.03700
C         15.34100        2.99400       -3.18200
C         16.12000        4.26000       -2.83700
C         16.96200        4.73400       -4.00700
C         12.71100        1.48000       -1.26500
C         11.84100        0.39800       -1.26700
H          0.54300       -6.58900        1.22600
H          0.49300       -5.26400        0.04900
H          0.49500       -4.90800        1.78900
H          2.78400       -6.23700        0.24900
H          2.79000       -5.89000        1.97900
H          2.58100       -3.43500        1.49100
H          2.56000       -3.78500       -0.24100
H          4.78600       -4.87200       -0.04600
H          4.85200       -4.47900        1.67300
H          4.70300       -2.04700        1.13500
H          4.64400       -2.41700       -0.58400
H          6.95400       -3.07400        1.31900
H          6.75900       -0.66600        0.86800
H          6.65100       -0.95300       -0.86700
H          9.04100       -1.50400        0.94700
H          8.90400       -0.26300       -0.28700
H          8.79200       -1.95200       -2.07300
H          9.09700       -4.07500        0.10600
H          8.99300       -4.35100       -1.62600
H          6.85900       -4.76800       -0.47600
H          6.69600       -3.51000       -1.70000
H         13.30700       -1.47900       -3.70000
H         14.85800        0.42500       -3.69500
H         14.67500        3.18300       -4.03300
H         16.05400        2.20100       -3.43200
H         16.76400        4.06400       -1.97100
H         15.42900        5.05200       -2.52500
H         17.66900        3.95900       -4.31900
H         17.53400        5.62400       -3.72800
H         16.33100        4.98800       -4.86500
H         12.53400        2.31400       -0.58800
H         10.99400        0.41700       -0.59000
