21
67639-41-2.pdb
N          0.89400       -0.02800        0.08200
C          2.42300       -0.04300        0.03700
C          2.90700        1.01700       -0.95300
C          2.50000        0.75200       -2.39600
S          3.09600       -0.85000       -3.00200
C          2.47500       -1.93100       -1.68600
C          2.90000       -1.45500       -0.30400
C          2.94300        0.32700        1.47100
O          1.94900        0.53200        2.24400
O          4.17600        0.37300        1.65800
H          0.36600       -0.22100       -0.76400
H          0.64900        0.88400        0.50700
H          0.63600       -0.64700        0.86700
H          4.00200        1.10200       -0.90600
H          2.52700        2.00400       -0.65700
H          2.90600        1.53400       -3.04500
H          1.41200        0.78100       -2.50900
H          2.85600       -2.94200       -1.86300
H          1.38500       -1.98500       -1.76700
H          3.99500       -1.50900       -0.23200
H          2.52400       -2.16500        0.44500
