22
6780-49-0.pdb
C          1.07900        0.07500        0.43400
C          2.59000        0.05100        0.54700
O          3.02900       -1.30700        0.45000
C          4.36500       -1.46800        0.52400
N          4.84700       -2.61400        0.83900
C          6.23500       -2.78500        0.97700
C          7.13200       -1.77100        1.33300
C          8.49300       -2.04400        1.51100
C          8.97000       -3.34400        1.35400
C          8.09000       -4.36700        1.01800
C          6.73300       -4.08500        0.83100
H          0.69400        1.08900        0.56900
H          0.62400       -0.58100        1.18400
H          0.76300       -0.29500       -0.54700
H          2.89300        0.45200        1.52100
H          3.03700        0.65400       -0.25100
H          4.93500       -0.55200        0.30100
H          6.79200       -0.75600        1.50200
H          9.17600       -1.24500        1.78700
H         10.02500       -3.56000        1.50900
H          8.45000       -5.38700        0.91100
H          6.04700       -4.89200        0.58300
