33
6789-88-4.pdb
C          1.00400        0.06000        0.14800
C          2.52400        0.04100        0.17400
C          3.05400       -0.80200        1.33600
C          4.58200       -0.82200        1.36200
C          5.11300       -1.65900        2.52300
C          6.63600       -1.67400        2.53000
O          7.11600       -2.47300        3.62100
C          7.08900       -3.81200        3.35400
O          6.71200       -4.32000        2.32400
C          7.61800       -4.60500        4.50000
C          7.67600       -6.00300        4.43800
C          8.27000       -6.71700        5.48700
C          8.78700       -6.03600        6.59000
C          8.69900       -4.64800        6.66200
C          8.11200       -3.93500        5.62200
H          0.64500        0.66500       -0.69100
H          0.60100        0.48900        1.07200
H          0.60000       -0.95100        0.03400
H          2.89500        1.06900        0.25800
H          2.89400       -0.36000       -0.77700
H          2.67400       -1.82700        1.24800
H          2.67700       -0.39700        2.28300
H          4.96200        0.20300        1.44600
H          4.95900       -1.22800        0.41500
H          4.73800       -2.68600        2.45500
H          4.75000       -1.26900        3.48200
H          7.02200       -0.65500        2.63800
H          7.02900       -2.08100        1.59300
H          7.29400       -6.54600        3.57400
H          8.34900       -7.80100        5.43800
H          9.27000       -6.58600        7.39500
H          9.10000       -4.11500        7.51800
H          8.06600       -2.85300        5.67700
