32
67914-60-7.pdb
C          1.34300        0.62800       -0.43800
C          2.61100       -0.08500       -0.04600
O          3.02400       -0.01600        1.11200
N          3.24600       -0.82700       -1.02200
C          2.83900       -0.94000       -2.43000
C          2.67700       -2.41000       -2.86000
N          3.85100       -3.20400       -2.47100
C          4.26900       -3.08800       -1.06100
C          4.43900       -1.60600       -0.67900
C          4.61200       -3.91400       -3.37600
C          4.78400       -3.48900       -4.70200
C          5.58000       -4.20100       -5.60600
C          6.21300       -5.36400       -5.19100
O          7.00800       -6.08300       -6.03100
C          6.05300       -5.82600       -3.89700
C          5.25900       -5.10400       -3.00200
H          1.01000        1.25600        0.39300
H          0.56400       -0.10600       -0.65500
H          1.51500        1.27900       -1.29900
H          3.62900       -0.46400       -3.02300
H          1.91000       -0.40200       -2.63000
H          2.46300       -2.45400       -3.93200
H          1.79900       -2.83500       -2.35800
H          5.21700       -3.59600       -0.85600
H          3.50200       -3.55200       -0.42900
H          5.27600       -1.17000       -1.23700
H          4.67700       -1.52800        0.38700
H          4.32900       -2.56500       -5.04800
H          5.69700       -3.82400       -6.61900
H          7.06200       -5.61400       -6.88000
H          6.53700       -6.74200       -3.57900
H          5.13000       -5.50600       -2.00100
