33
67945-22-6.pdb
C          6.22600        0.30700       -1.07100
C          4.73200        0.56000       -0.97700
O          4.53500        1.54000        0.04700
C          4.34600        1.04000        1.29300
O          4.00600       -0.09800        1.57400
C          4.76700        2.03100        2.30500
C          4.56900        1.77100        3.77700
C          4.13800        2.85700        4.68500
O          4.11800        4.02900        4.35500
O          3.91300        2.36500        5.93000
C          4.03300        3.32200        6.98900
C          5.47000        3.27400        7.47300
C          5.98200        1.76100        3.19300
C          6.69700        0.43000        3.14600
C          6.92900        2.91500        3.42900
H          6.46200       -0.39800       -1.87100
H          6.61100       -0.08900       -0.12400
H          6.75800        1.24800       -1.25300
H          4.17900       -0.36600       -0.78600
H          4.35900        0.98100       -1.91600
H          4.63000        3.05800        1.97200
H          4.15100        0.80300        4.04500
H          3.35000        3.02000        7.78900
H          3.74900        4.33400        6.67700
H          5.72900        2.25700        7.78600
H          5.63300        3.95700        8.31000
H          6.15900        3.53500        6.66300
H          6.01700       -0.42000        3.04200
H          7.26400        0.27700        4.07000
H          7.40000        0.40800        2.30700
H          6.43600        3.89000        3.39100
H          7.71000        2.92000        2.66100
H          7.41300        2.81400        4.40600
