51
68-26-8.pdb
C          3.47200       -0.93500        1.04500
C          2.63300       -0.29400       -0.03900
C          1.28900       -0.42500       -0.08000
C          0.43800       -1.16400        0.91000
O         -0.82400       -0.52000        1.00100
C          3.34300        0.45800       -1.08900
C          4.67900        0.61500       -1.10900
C          5.48500        1.31800       -2.09200
C          6.83400        1.43100       -2.04300
C          7.69700        0.84200       -0.94400
C          7.55700        2.17500       -3.09000
C          8.89000        2.37300       -3.11300
C          9.64300        3.12200       -4.11700
C          9.44500        4.44800       -4.32000
C          8.49600        5.32000       -3.53200
C         10.21600        5.24000       -5.35600
C         11.01300        4.39100       -6.33700
C         11.73400        3.27800       -5.59800
C         10.75100        2.32800       -4.85800
C         11.62600        1.47800       -3.90300
C         10.09900        1.37400       -5.88200
H          2.89700       -1.51700        1.76700
H          4.01400       -0.17100        1.61300
H          4.19400       -1.63300        0.60400
H          0.73300        0.01400       -0.90600
H          0.86100       -1.18700        1.91800
H          0.27300       -2.19200        0.57400
H         -0.66300        0.34900        1.40700
H          2.73900        0.89600       -1.88200
H          5.23800        0.16700       -0.30100
H          4.93400        1.77500       -2.91500
H          7.15900        0.28000       -0.18200
H          8.22900        1.63800       -0.41100
H          8.42700        0.14300       -1.36900
H          6.95400        2.60500       -3.88800
H          9.51700        1.95200       -2.33300
H          7.98900        4.80600       -2.71300
H          7.72700        5.73500       -4.19300
H          9.04800        6.15300       -3.08100
H         10.90200        5.91500       -4.82900
H          9.52700        5.87000       -5.93000
H         11.74000        5.02400       -6.86100
H         10.34900        3.97700       -7.10400
H         12.42900        3.73200       -4.87800
H         12.35400        2.71300       -6.30600
H         12.05700        2.09400       -3.10500
H         12.45900        1.01200       -4.44500
H         11.06100        0.66400       -3.43600
H          9.46500        1.91000       -6.59500
H          9.47400        0.62100       -5.38800
H         10.86100        0.83400       -6.45600
