22
68-95-1.pdb
C          3.27200        0.73500        1.11400
C          2.65500        0.03600       -0.07600
O          1.58200        0.41700       -0.53600
N          3.38900       -0.98100       -0.66300
C          2.83100       -1.75800       -1.75900
C          3.25300       -3.18200       -1.45100
C          4.62000       -3.01600       -0.79800
C          4.52800       -1.68600       -0.04400
C          5.84100       -0.91800       -0.21600
O          5.78300        0.03900       -1.17300
O          6.87300       -1.18800        0.38200
H          2.50500        1.33600        1.61400
H          4.07000        1.39800        0.77300
H          3.65900        0.02900        1.85000
H          3.30000       -1.40300       -2.68400
H          1.74500       -1.65000       -1.84700
H          3.28500       -3.81400       -2.34400
H          2.55400       -3.63300       -0.73700
H          5.40100       -2.99300       -1.56800
H          4.85000       -3.84800       -0.12400
H          4.32400       -1.83500        1.02000
H          4.88600        0.07500       -1.56900
