30
6802-75-1.pdb
C          2.12900        0.56200        1.27300
C          2.51000        0.13200       -0.12600
O          3.20000        1.20400       -0.79000
C          4.38200        0.86700       -1.36100
O          5.01600       -0.14200       -1.07800
C          4.81500        1.81900       -2.43200
C          3.96400        2.47900       -3.26700
C          4.40000        3.37300       -4.41700
C          2.45100        2.40400       -3.25600
C          6.29300        1.83300       -2.68000
O          6.82100        1.88600       -3.78100
O          6.96900        1.68500       -1.50500
C          8.30500        1.17100       -1.63700
C          8.25700       -0.32700       -1.88400
H          1.58100       -0.23700        1.78100
H          1.50100        1.45800        1.24300
H          3.02100        0.80800        1.85600
H          1.60400       -0.07500       -0.70700
H          3.08800       -0.79800       -0.08800
H          5.46800        3.56300       -4.49000
H          3.91900        4.35200       -4.32600
H          4.07600        2.92600       -5.36700
H          2.00800        1.72200       -2.53700
H          2.09400        2.06600       -4.23600
H          2.03300        3.39900       -3.06700
H          8.82100        1.36400       -0.69100
H          8.85700        1.69500       -2.42300
H          7.73300       -0.83800       -1.06900
H          9.26200       -0.74900       -1.97000
H          7.70500       -0.56200       -2.80400
