23
681-57-2.pdb
C          1.00400        0.08500        0.10200
C          2.54000        0.11000        0.06200
C          3.08000       -0.80100        1.17800
C          3.03500       -0.42200       -1.31700
C          2.60900        0.43700       -2.51500
C          3.11000       -0.12200       -3.82700
O          4.45300       -0.07000       -3.95500
O          2.37900       -0.56100       -4.69700
C          3.14500        1.50000        0.29100
O          2.46600        2.31400        1.12000
O          4.20800        1.85200       -0.20800
H          0.62300       -0.90400       -0.18000
H          0.56600        0.82500       -0.57500
H          0.61500        0.29400        1.10300
H          2.71500       -1.82800        1.06600
H          2.77000       -0.44000        2.16600
H          4.17600       -0.83000        1.17600
H          2.67300       -1.44800       -1.46800
H          4.13100       -0.50100       -1.30300
H          2.95700        1.47200       -2.43700
H          1.51600        0.47800       -2.58500
H          4.90800        0.35500       -3.20000
H          1.65800        1.95100        1.52400
