27
68208-19-5.pdb
C          1.29900       -0.06500        0.48400
O          2.52500        0.01100       -0.23500
C          3.12800        1.23900       -0.29700
C          2.64800        2.41800        0.26600
C          3.37900        3.60100        0.14000
C          4.60200        3.60800       -0.53500
C          5.10900        2.43000       -1.10000
C          4.34500        1.25300       -0.98700
C          6.47400        2.42300       -1.76200
N          7.36100        1.46200       -1.05200
C          6.42500        2.10100       -3.24900
C          7.84200        2.14300       -3.80400
O          8.73400        1.82300       -2.95500
O          7.94800        2.46100       -5.00900
H          0.97300       -1.11000        0.47800
H          0.52000        0.53200       -0.00200
H          1.43200        0.23300        1.53000
H          1.70600        2.45600        0.80500
H          2.99400        4.52100        0.57500
H          5.14900        4.54800       -0.61300
H          4.68800        0.32300       -1.43300
H          6.95000        3.40100       -1.61400
H          7.06400        0.49300       -1.15200
H          7.55100        1.71000       -0.08500
H          8.27100        1.51600       -1.59000
H          5.80800        2.84000       -3.77300
H          6.00000        1.11100       -3.44700
