33
68399-81-5.pdb
O          3.03000        2.84000       -0.29100
C          2.39100        2.28800        0.85900
C          2.88700        0.83900        1.12300
C          2.21300        0.31800        2.43000
O          2.60400       -1.00600        2.78900
C          2.43500       -0.04900       -0.07200
O          2.84400       -1.40600        0.12700
N          4.38600        0.73800        1.17100
C          4.99600        1.53800        2.24200
C          6.54100        1.52500        2.19300
O          6.96300        2.02000        0.91900
C          7.04800        2.39400        3.33600
S          8.81300        2.36200        3.49400
O          8.88900        3.25000        4.84500
O          9.25400        1.04200        3.88600
O          9.42500        3.13200        2.44200
H          2.68700        3.74400       -0.40600
H          1.30900        2.30100        0.69000
H          2.59800        2.94400        1.71100
H          1.12300        0.31900        2.32300
H          2.44800        0.96500        3.28100
H          2.56000       -1.54000        1.96800
H          2.86300        0.29100       -1.02200
H          1.34400       -0.04000       -0.17600
H          3.81200       -1.34300        0.27800
H          4.75600        1.09700        0.28200
H          4.67200        1.17400        3.22200
H          4.68200        2.58200        2.13700
H          6.91200        0.49800        2.28800
H          6.80400        2.97800        0.86400
H          6.64700        2.03600        4.29000
H          6.76500        3.44300        3.19500
H          9.27800        2.69300        5.55400
