24
6843-49-8.pdb
C          0.96000       -0.04900        0.14900
C          2.47300       -0.05500       -0.03000
N          3.09800       -1.21600        0.57700
C          4.20100       -0.88100        1.32200
O          4.97300       -1.68200        1.82300
N          4.25200        0.46000        1.44300
C          3.15700        1.02000        0.85800
O          2.82400        2.18700        0.99100
C          2.87200        0.07700       -1.50000
C          3.05300        1.34300       -2.08500
C          3.45900        1.47200       -3.41400
C          3.66900        0.33900       -4.19200
C          3.46400       -0.92400       -3.64600
C          3.06200       -1.05600       -2.31500
H          0.68100       -0.08800        1.20900
H          0.49600       -0.91000       -0.34500
H          0.51400        0.85900       -0.27300
H          2.93900       -2.17700        0.31200
H          4.89800        0.94700        2.04000
H          2.89600        2.25400       -1.50900
H          3.61600        2.46100       -3.83600
H          3.99300        0.44100       -5.22400
H          3.62500       -1.81100       -4.25500
H          2.91800       -2.06000       -1.92600
