50
6846-50-0.pdb
C          0.87000        0.25300        0.15700
C          2.40600        0.18500        0.11500
C          2.89200        1.30000        1.04000
C          2.99300       -1.24700        0.42400
O          2.44700       -2.13800       -0.60800
C          1.19600       -2.66500       -0.41300
O          0.65000       -2.79800        0.67100
C          0.52200       -2.94000       -1.75600
C          1.34500       -3.98300       -2.48800
C         -0.92100       -3.42300       -1.56700
C          4.58600       -1.37900        0.41600
C          4.99500       -2.84100        0.72600
C          5.20600       -0.98500       -0.94400
C          5.25500       -0.48800        1.49200
O          6.69600       -0.63000        1.47700
C          7.41600        0.50100        1.16600
O          6.94200        1.59600        0.95900
C          8.90900        0.18100        1.16100
C          9.25400       -0.87400        0.11400
C          9.71800        1.45300        0.90000
H          0.52100        1.27600       -0.02300
H          0.48500       -0.05900        1.13300
H          0.40700       -0.34900       -0.62500
H          2.67600        0.44700       -0.91600
H          2.91800        0.97200        2.08400
H          2.25700        2.19000        0.98500
H          3.85900        1.68300        0.72600
H          2.64000       -1.57800        1.41000
H          0.48000       -2.00900       -2.34200
H          1.46900       -4.87600       -1.86800
H          2.34300       -3.59500       -2.71300
H          0.87300       -4.27600       -3.43000
H         -0.96800       -4.29200       -0.90200
H         -1.37000       -3.70900       -2.52600
H         -1.54900       -2.63900       -1.12800
H          4.57100       -3.55100        0.00700
H          4.66400       -3.14100        1.72800
H          6.08500       -2.97200        0.69200
H          5.11300       -1.77100       -1.69500
H          6.28100       -0.79300       -0.86700
H          4.76100       -0.06200       -1.32800
H          4.90600       -0.72800        2.49700
H          5.03200        0.55000        1.31400
H          9.17500       -0.18900        2.15900
H          8.94800       -0.55400       -0.88800
H          8.75400       -1.82400        0.32600
H         10.33300       -1.06600        0.09400
H          9.47100        1.88900       -0.07500
H         10.79300        1.24500        0.91400
H          9.51100        2.21000        1.66300
