21
685-91-6.pdb
C          2.37500       -1.23200        0.58200
C          2.54500        0.14600       -0.04200
N          3.08800        1.13000        0.90000
C          2.19700        2.03200        1.64200
C          0.69600        1.83800        1.51700
C          4.45100        1.31600        1.13700
C          5.46100        0.44600        0.43200
O          4.86000        2.18900        1.90900
H          2.03300       -1.94700       -0.17400
H          1.63700       -1.21600        1.39000
H          3.31400       -1.60700        1.00000
H          1.59300        0.49700       -0.44600
H          3.21300        0.07700       -0.90500
H          2.44500        3.05300        1.31900
H          2.47000        1.96600        2.70200
H          0.35200        1.99100        0.48900
H          0.17700        2.57200        2.14300
H          0.39100        0.84100        1.84600
H          5.04200       -0.39600       -0.11300
H          6.14400        0.03600        1.18400
H          6.03000        1.06800       -0.26400
