20
6851-81-6.pdb
C          1.08600       -0.09800        0.23700
N          2.52400       -0.07200        0.08400
C          3.25500       -1.13700       -0.41500
O          2.84500       -2.26400       -0.64200
N          4.50400       -0.69400       -0.70500
C          4.55700        0.66200       -0.61100
O          5.46500        1.35800       -1.04100
C          3.32900        1.14400        0.17600
C          2.69300        2.37700       -0.45100
C          3.76600        1.40300        1.62000
H          0.72000       -1.12800        0.23900
H          0.63200        0.42900       -0.60900
H          0.80900        0.39300        1.17200
H          5.17100       -1.24900       -1.21300
H          2.39300        2.19000       -1.48800
H          3.38900        3.22300       -0.45800
H          1.80000        2.68500        0.10400
H          4.28200        0.53500        2.04800
H          2.90700        1.62300        2.26200
H          4.46100        2.24900        1.67400
