51
68550-75-4.pdb
C          1.20100       -0.00300       -0.03200
N          2.65900        0.02500        0.03400
C          3.38700        1.03800       -0.77500
C          2.98800        2.47700       -0.38300
C          3.63200        3.53500       -1.27800
C          3.35100        3.26700       -2.75300
C          3.83500        1.87500       -3.14300
C          3.19300        0.79100       -2.28500
C          3.21900       -0.90100        0.91100
O          2.49900       -1.64200        1.58900
C          4.73500       -1.01000        0.99500
C          5.22700       -2.12100        1.94100
C          4.82400       -3.52100        1.47300
O          5.37900       -4.50900        2.34800
C          5.08600       -5.81200        2.02300
C          4.28100       -6.21700        0.95400
C          4.07800       -7.57400        0.68600
C          4.68200       -8.52700        1.49500
N          4.50800       -9.88800        1.21400
C          5.08000      -10.88700        1.95100
O          4.92800      -12.07300        1.67800
C          5.91400      -10.47000        3.11000
C          6.09500       -9.17900        3.41200
C          5.47700       -8.14100        2.58400
C          5.67000       -6.78000        2.84800
H          0.80600        0.70600       -0.76400
H          0.79600        0.23900        0.95700
H          0.87700       -1.01100       -0.30900
H          4.45800        0.93900       -0.57000
H          3.26300        2.66600        0.66200
H          1.90000        2.60400       -0.44100
H          4.71600        3.55600       -1.11000
H          3.25000        4.52800       -1.01000
H          3.84600        4.02300       -3.37100
H          2.27500        3.35200       -2.94600
H          4.92800        1.82900       -3.04600
H          3.60600        1.69400       -4.20300
H          3.60900       -0.18700       -2.55600
H          2.12600        0.74800       -2.53400
H          5.12000       -0.05300        1.36400
H          5.13500       -1.19100       -0.00900
H          4.85900       -1.95500        2.96100
H          6.32200       -2.07500        2.00800
H          5.20800       -3.67700        0.45800
H          3.73600       -3.62200        1.48200
H          3.79200       -5.50200        0.29900
H          3.45400       -7.86400       -0.15300
H          3.94300      -10.18100        0.42800
H          6.35300      -11.27200        3.68800
H          6.70000       -8.88400        4.25900
H          6.28200       -6.46200        3.69000
