36
688-84-6.pdb
C          0.93000       -0.00700        0.13700
C          2.45300       -0.02600        0.09300
C          2.94000       -0.14900       -1.35200
C          4.46800       -0.18300       -1.47000
C          4.96200       -0.32100       -2.93000
C          4.45700        0.78600       -3.88400
C          4.94000        2.19300       -3.55800
C          6.49800       -0.44200       -2.95400
O          6.99400       -0.60400       -4.29600
C          6.94500       -1.86700       -4.78600
O          6.52100       -2.84200       -4.17700
C          7.47000       -1.93000       -6.17800
C          7.99800       -0.71900       -6.88300
C          7.45200       -3.13200       -6.78400
H          0.57300        0.11700        1.16300
H          0.51800       -0.94100       -0.25800
H          0.53300        0.81900       -0.46300
H          2.82400       -0.86200        0.69600
H          2.83800        0.89800        0.54100
H          2.54200        0.70300       -1.91300
H          2.52400       -1.05900       -1.79900
H          4.84300       -1.03800       -0.89000
H          4.89600        0.71200       -1.00300
H          4.54900       -1.26000       -3.32300
H          3.36200        0.78100       -3.90200
H          4.75800        0.54900       -4.91200
H          4.93700        2.40000       -2.48500
H          4.28900        2.93000       -4.03900
H          5.95500        2.35300       -3.93700
H          6.84300       -1.26800       -2.31900
H          6.96100        0.46600       -2.55000
H          7.95200        0.19300       -6.28400
H          7.42400       -0.53500       -7.79800
H          9.04700       -0.87200       -7.16000
H          7.07100       -4.02000       -6.28500
H          7.81900       -3.26100       -7.79800
