46
68858-20-8.pdb
C          3.24800       -0.42900        0.83600
C          3.20300       -0.68800        2.35100
C          4.14700       -1.85400        2.65400
C          3.55700        0.58500        3.16700
N          2.68500        1.72000        2.86500
C          1.35000        1.71500        3.08800
O          0.77000        0.84500        3.72900
O          0.77300        2.79000        2.52200
C         -0.63700        2.93800        2.78300
C         -0.90200        3.61600        4.13600
C         -0.29000        5.01300        4.22000
C          1.04700        5.37600        4.14300
C          1.37100        6.72800        4.19300
C          0.36700        7.69900        4.34300
C         -0.97700        7.32600        4.46200
C         -1.30100        5.98100        4.40100
C         -2.58100        5.31100        4.48200
C         -3.85500        5.82400        4.67700
C         -4.93300        4.93400        4.71600
C         -4.73100        3.55100        4.56700
C         -3.44900        3.03300        4.37500
C         -2.38400        3.92100        4.33200
C          3.65100        0.35900        4.69300
O          2.52200       -0.07400        5.29600
O          4.67600        0.56500        5.33300
H          3.02400       -1.35000        0.28400
H          4.24000       -0.08900        0.51800
H          2.51300        0.31900        0.52700
H          2.18600       -1.01200        2.60100
H          5.18000       -1.61000        2.38200
H          3.85300       -2.74100        2.08100
H          4.12400       -2.12800        3.71300
H          4.56200        0.91200        2.86300
H          3.04400        2.48600        2.30900
H         -1.13300        1.95900        2.73200
H         -1.04900        3.52900        1.95400
H         -0.53300        3.02000        4.97800
H          1.83100        4.63100        4.04000
H          2.41100        7.03900        4.10700
H          0.64000        8.75000        4.36800
H         -1.74200        8.08500        4.58900
H         -4.02200        6.88900        4.80100
H         -5.94000        5.31500        4.86800
H         -5.58600        2.87900        4.60600
H         -3.29900        1.96300        4.26900
H          1.72100       -0.02700        4.72000
