20
6899-04-3.pdb
N          2.92900        0.15300       -1.53100
C          2.46200        0.06200       -0.10900
C          2.99600       -1.22900        0.51700
C          2.48900       -1.48000        1.93900
C          3.01500       -2.78200        2.50100
N          2.60600       -3.04100        3.77600
O          3.74400       -3.55800        1.89600
C          2.94000        1.33300        0.62900
O          3.55100        2.19500       -0.22300
O          2.77600        1.57000        1.81400
H          2.32700       -0.45900       -2.09100
H          3.85000       -0.29600       -1.59800
H          1.36600        0.08400       -0.11400
H          4.09400       -1.21600        0.52600
H          2.70100       -2.08000       -0.11300
H          1.39400       -1.51400        1.94900
H          2.82000       -0.68800        2.61500
H          2.06400       -2.38500        4.32200
H          2.96600       -3.87000        4.22900
H          3.48800        1.77100       -1.11600
