15
69-89-6.pdb
O          2.92400        0.96000        0.00400
C          1.76800        0.54700       -0.01300
N          1.49700       -0.81000       -0.00900
C          0.24800       -1.39900       -0.00100
O          0.08100       -2.61200        0.01200
C         -0.80000       -0.44000       -0.00100
N         -2.15600       -0.57400        0.02500
C         -2.67200        0.70000        0.02300
N         -1.72400        1.61900       -0.01000
C         -0.57600        0.90300       -0.02000
N          0.69100        1.39800       -0.03300
H          2.29500       -1.42600        0.00400
H         -2.67600       -1.44100        0.05200
H         -3.73800        0.89000        0.04800
H          0.83100        2.39700       -0.03700
