16
69-93-2.pdb
O          0.99500        0.03100        0.14600
C          2.22100        0.01500        0.10700
N          2.93800       -1.16200        0.06400
C          4.31200       -1.28000        0.00300
O          4.90200       -2.35100       -0.04000
C          5.00700        0.00800       -0.01200
C          4.31000        1.14300        0.03500
N          2.96300        1.17300        0.09800
N          5.17500        2.19200       -0.00600
C          6.49000        1.68500       -0.09400
O          7.52100        2.32400       -0.16600
N          6.34000        0.28700       -0.08800
H          2.40400       -2.01700        0.06700
H          2.45500        2.04700        0.12700
H          4.96000        3.17600        0.00200
H          7.09000       -0.38600       -0.14900
