28
69026-14-8.pdb
O          3.30500       -0.45800       -5.14900
C          4.30000       -0.98300       -4.56100
O          5.45400       -1.16700       -5.06600
C          4.09700       -1.43800       -3.13100
C          2.85400       -1.33100       -2.49000
C          2.68600       -1.77300       -1.17500
C          3.75400       -2.35700       -0.49200
C          4.98800       -2.50500       -1.12500
O          5.95900       -3.16500       -0.41500
C          6.96200       -3.76600       -1.24200
C          7.65100       -4.86800       -0.47800
C          7.54300       -6.19700       -0.91100
C          8.19500       -7.21900       -0.22400
C          8.95900       -6.92200        0.90300
C          9.07200       -5.60300        1.34300
C          8.42000       -4.57900        0.65600
C          5.16300       -2.00700       -2.41900
H          2.01500       -0.89900       -3.03400
H          1.71700       -1.67700       -0.69500
H          3.61800       -2.72000        0.52200
H          7.70600       -3.01500       -1.53400
H          6.51800       -4.20000       -2.14700
H          6.94900       -6.43900       -1.79100
H          8.10400       -8.24500       -0.57100
H          9.46700       -7.71900        1.43800
H          9.66600       -5.37100        2.22100
H          8.50700       -3.55200        1.00400
H          6.12200       -2.06100       -2.92400
