22
6908-41-4.pdb
C          1.16400       -1.28200        0.33300
O          2.59100       -1.25100        0.36200
C          3.15300       -0.89800       -0.81900
O          2.56000       -0.61600       -1.84700
C          4.63500       -0.96500       -0.71900
C          5.30400       -0.82500        0.50200
C          6.70100       -0.88500        0.54800
C          7.44400       -1.08900       -0.62300
C          8.95000       -1.12600       -0.58800
O          9.42900       -2.37600       -1.05800
C          6.76600       -1.22600       -1.84200
C          5.37300       -1.15900       -1.89300
H          0.81100       -1.54700        1.33400
H          0.81100       -2.04200       -0.37100
H          0.76200       -0.29700        0.07400
H          4.74900       -0.65400        1.42200
H          7.20300       -0.76400        1.50600
H          9.33000       -0.98000        0.42800
H          9.36000       -0.32900       -1.21700
H          8.93600       -3.06600       -0.58100
H          7.32800       -1.38300       -2.76300
H          4.86400       -1.25700       -2.84900
