19
6921-29-5.pdb
C          0.91800       -0.01600       -0.10200
C          2.22100        0.00200       -0.07800
C          3.74100        0.02300       -0.05100
N          4.23700        1.11900       -0.88600
C          3.74100        2.40100       -0.37900
C          4.26200        3.53600       -1.24700
C          4.70900        4.50900       -1.99100
C          5.70100        1.11700       -0.90100
C          6.20600       -0.19800       -1.47200
C          6.64000       -1.32500       -1.96200
H         -0.14700       -0.04300       -0.12900
H          4.05900       -0.95700       -0.42200
H          4.07700        0.11400        0.99000
H          4.05500        2.58000        0.65700
H          2.64800        2.46700       -0.41600
H          5.07100        5.30800       -2.59500
H          6.12100        1.25100        0.10300
H          6.11500        1.90000       -1.54600
H          6.98900       -2.24700       -2.36900
