13
6921-98-8.pdb
O          2.88700       -1.01200       -0.32500
C          2.39500        0.06100       -0.01200
N          3.10100        1.18700        0.30900
C          4.52700        1.18400        0.29900
N          5.00100        2.47800        0.67000
C          5.28300        3.46300       -0.22700
O          5.70500        4.56100        0.10700
H          1.30600        0.22600        0.04000
H          2.61800        2.03700        0.55800
H          4.88100        0.91500       -0.70200
H          4.89400        0.45100        1.02300
H          5.18900        2.68900        1.64100
H          5.08300        3.19000       -1.27600
