18
6925-00-4.pdb
O          1.35200       -0.40500        0.84500
C          2.32900       -0.02500        0.12600
O          2.71200       -0.56400       -0.95800
C          3.10400        1.18200        0.60700
C          2.75600        1.83500        1.79400
C          3.47500        2.95100        2.22400
C          4.54000        3.44800        1.48700
N          5.20100        4.54000        1.93300
C          6.21700        4.97700        1.16100
C          6.57400        4.35400       -0.01500
N          5.93400        3.26000       -0.47300
C          4.90700        2.80100        0.27900
C          4.19100        1.68300       -0.13100
H          1.91500        1.46600        2.38000
H          3.19200        3.44300        3.15000
H          6.74000        5.85400        1.52000
H          7.38800        4.71800       -0.63000
H          4.47500        1.18200       -1.05500
