21
6926-51-8.pdb
C          1.41100        0.52100        0.84700
O          2.49100        0.01900        0.06800
C          3.06200        0.88900       -0.81900
C          2.67200        2.21000       -1.03300
C          3.33600        2.99700       -1.98200
C          4.40200        2.47600       -2.72900
C          4.79300        1.15000       -2.50600
C          4.12600        0.36500       -1.55800
C          5.08200        3.29900       -3.72100
N          4.75800        4.57400       -4.00700
N          5.66100        4.83800       -4.96100
N          6.49800        3.84400       -5.27300
N          6.13600        2.84400       -4.48200
H          1.05400       -0.29000        1.48900
H          0.57500        0.83300        0.21100
H          1.74200        1.33900        1.49500
H          1.85300        2.66400       -0.48400
H          3.01100        4.02400       -2.13300
H          5.61700        0.71100       -3.06500
H          4.43800       -0.66400       -1.39600
H          5.71000        5.74100       -5.42400
