14
693-05-0.pdb
C          1.01400        0.06300       -0.05400
N          2.47200        0.06000       -0.06000
C          2.98400       -1.19000       -0.63400
C          4.51100       -1.19400       -0.64500
C          5.01700       -2.49700       -1.24100
N          5.43800       -3.57800       -1.73600
H          0.65300        1.00600        0.36700
H          0.61600       -0.75400        0.55800
H          0.61300       -0.02100       -1.07000
H          2.80500        0.16800        0.89800
H          2.61500       -1.30500       -1.66100
H          2.61800       -2.04800       -0.05500
H          4.90700       -1.09500        0.37300
H          4.89800       -0.35800       -1.23900
