38
693-23-2.pdb
O          1.00900       -0.01100        0.11500
C          2.34400        0.03400        0.01800
O          2.90800        0.50000       -0.95500
C          3.06400       -0.54300        1.22200
C          4.57500       -0.44800        1.01700
C          5.34800       -1.01800        2.20100
C          6.84800       -0.90100        1.95400
C          7.62500       -1.47000        3.13100
C          9.12200       -1.35000        2.88400
C          9.89900       -1.92100        4.06200
C         11.39600       -1.80600        3.82400
C         12.15600       -2.38200        5.01100
C         13.66500       -2.28200        4.80400
C         14.43200       -2.84700        5.96800
O         15.78000       -2.78700        5.84800
O         13.91900       -3.33100        6.96400
H          0.65900       -0.40100        0.92900
H          2.76700       -1.58900        1.34300
H          2.77100        0.02200        2.11300
H          4.86300        0.59800        0.86900
H          4.86000       -0.98800        0.10800
H          5.08100       -2.07100        2.35200
H          5.08300       -0.47800        3.11800
H          7.12300        0.15100        1.80400
H          7.12100       -1.43900        1.03700
H          7.35600       -2.52200        3.28000
H          7.35600       -0.93200        4.04900
H          9.39100       -0.29700        2.73600
H          9.39100       -1.88700        1.96600
H          9.62000       -2.97300        4.20700
H          9.62000       -1.38400        4.97700
H         11.66700       -0.75400        3.67600
H         11.66600       -2.34200        2.90600
H         11.86300       -3.42900        5.15600
H         11.86400       -1.84800        5.92200
H         13.95200       -1.23000        4.68600
H         13.95100       -2.84100        3.90500
H         16.11100       -2.38800        5.02700
