45
69355-99-3.pdb
C          2.74200        1.43100       -0.52000
C          2.43800        0.00600       -0.05400
O          1.00000       -0.11400        0.04800
C          0.59400       -1.30900        0.72400
C         -0.90200       -1.43000        0.87100
C         -1.50800       -2.68400        0.68200
C         -2.86600       -2.86900        0.93800
C         -3.63700       -1.80000        1.38800
C         -3.05200       -0.54600        1.56300
C         -1.69100       -0.35900        1.30700
C          3.04100       -1.06300       -0.99600
N          2.45300       -1.05100       -2.34600
C          1.61100       -2.03900       -2.76300
O          1.43100       -3.07600       -2.14200
O          1.07800       -1.71700       -3.96000
C          0.18600       -2.66500       -4.61800
C         -1.11500       -2.83300       -3.82600
C         -0.15000       -2.03800       -5.98100
C          0.89000       -4.00300       -4.87600
C          4.56700       -1.01000       -1.06200
O          5.05100       -1.41000       -2.26300
O          5.29500       -0.73800       -0.11900
H          2.32100        2.15800        0.18300
H          2.28900        1.64300       -1.49300
H          3.81900        1.61500       -0.58900
H          2.86500       -0.10400        0.95100
H          1.04900       -1.34500        1.72100
H          0.94000       -2.17500        0.15900
H         -0.91600       -3.53400        0.34600
H         -3.31600       -3.84800        0.80100
H         -4.69100       -1.94600        1.60600
H         -3.65600        0.28700        1.91500
H         -1.24400        0.61900        1.46300
H          2.85000       -2.05200       -0.56500
H          2.38700       -0.18000       -2.86200
H         -1.65000       -1.87900       -3.74900
H         -0.94000       -3.16900       -2.80100
H         -1.77900       -3.55900       -4.30800
H         -0.62700       -1.05900       -5.86100
H         -0.82300       -2.68000       -6.56100
H          0.75900       -1.87000       -6.57100
H          1.14900       -4.52600       -3.95200
H          1.83000       -3.84600       -5.41800
H          0.25800       -4.67800       -5.46000
H          4.31100       -1.67500       -2.85100
