25
6937-96-8.pdb
C          1.09800       -0.72600       -0.14600
O          2.39500       -0.16700        0.03400
C          3.12200       -0.59200        1.12500
C          2.81000       -1.76500        1.82200
C          3.58100       -2.16600        2.90900
C          3.24500       -3.40300        3.68700
C          4.68300       -1.38900        3.27100
C          5.04000       -0.20800        2.58800
O          6.11800        0.35500        3.20600
C          6.76500        1.50800        2.70900
C          4.24800        0.19300        1.49900
C          4.43600        1.42200        0.68500
O          5.51400        1.89600        0.35600
H          0.61200       -0.18800       -0.96500
H          0.48400       -0.59300        0.75200
H          1.15800       -1.78100       -0.43400
H          1.97200       -2.39000        1.53200
H          2.33600       -3.88200        3.30700
H          3.07100       -3.15100        4.73800
H          4.06200       -4.12800        3.61900
H          5.28700       -1.69700        4.12500
H          7.58200        1.74400        3.40100
H          6.09500        2.37100        2.70500
H          7.23400        1.30900        1.74400
H          3.50700        1.89700        0.32300
