12
694-59-7.pdb
O         -2.16200        0.01700        0.00000
N         -0.89400        0.00700        0.00100
C         -0.17500        1.19000        0.00000
C          1.21900        1.19400        0.00100
C          1.90500       -0.01700       -0.00000
C          1.19900       -1.21500        0.00100
C         -0.19500       -1.18800        0.00300
H         -0.79900        2.07000       -0.00100
H          1.76000        2.13600        0.00300
H          2.99400       -0.02600       -0.00200
H          1.72500       -2.16700       -0.00100
H         -0.83300       -2.05800        0.00700
