15
694-32-6.pdb
C          1.15000       -0.07600        0.10700
N          2.57400       -0.04800       -0.09800
C          3.39600       -1.23300       -0.18700
C          4.75800       -0.69500       -0.61600
N          4.62400        0.73300       -0.51800
C          3.31000        1.10800       -0.30000
O          2.90000        2.25400       -0.31600
H          0.80000       -1.10800        0.19100
H          0.66600        0.41600       -0.74100
H          0.90700        0.47900        1.01900
H          2.97800       -1.92400       -0.92500
H          3.43500       -1.71700        0.79400
H          4.98200       -0.95000       -1.65600
H          5.57300       -1.03800        0.02700
H          5.29500        1.42100       -0.83400
