16
695-53-4.pdb
C          1.08600       -0.01100        0.04300
C          2.59100        0.02500       -0.14600
C          2.99500        0.10000       -1.61300
O          3.20100       -1.14000        0.43700
C          4.27100       -0.74500        1.18400
O          4.99700       -1.50600        1.80300
N          4.36600        0.59500        1.19300
C          3.25200        1.12700        0.64900
O          2.86500        2.27300        0.79100
H          0.64900       -0.87400       -0.47200
H          0.61000        0.89900       -0.33800
H          0.82300       -0.11100        1.10300
H          2.61400       -0.76600       -2.16500
H          4.08600        0.08600       -1.72700
H          2.62000        1.01400       -2.08600
H          4.97300        1.08700        1.82500
