24
6950-82-9.pdb
O          1.10700       -1.66100       -1.64400
C          2.44300       -1.43300       -1.70800
O          3.04500       -1.41900       -2.77000
C          3.05600       -1.22500       -0.33200
C          4.54800       -0.99800       -0.36000
C          5.39700       -2.03300       -0.24400
C          6.85800       -1.89000       -0.16200
O          7.58100       -2.87700       -0.08900
O          7.35300       -0.60100       -0.11400
C          6.49900        0.51100       -0.25100
C          7.11800        1.76300       -0.21100
C          6.33500        2.89600       -0.36700
O          6.87100        4.14700       -0.31200
C          4.96700        2.78300       -0.58600
C          4.36100        1.52000       -0.62000
C          5.11800        0.35700       -0.42200
H          0.73700       -1.66800       -0.74000
H          2.83900       -2.12600        0.25700
H          2.54000       -0.39700        0.16400
H          5.04900       -3.05900       -0.19000
H          8.18900        1.82800       -0.06000
H          7.82200        4.07400       -0.12300
H          4.36800        3.68000       -0.73100
H          3.29300        1.48100       -0.80900
