28
6950-92-1.pdb
C          2.15700        1.97100        0.05600
C          1.06700        0.94200        0.06300
C          1.35800       -0.42200        0.08200
C          0.33600       -1.38900        0.06500
C          0.74800       -2.83900        0.07200
C         -1.02500       -0.98500        0.02500
C         -2.13600       -2.01900       -0.05500
C         -2.68200       -2.48500        1.29700
O         -3.26200       -1.42700        2.05100
C         -1.32100        0.40200        0.03600
C         -2.71500        0.97600        0.01000
C         -0.27000        1.34000        0.05400
H          3.14500        1.51000       -0.03900
H          2.13700        2.54600        0.98700
H          2.02800        2.65600       -0.78700
H          2.39800       -0.74000        0.09900
H          1.83900       -2.94700        0.09600
H          0.40000       -3.34300       -0.83400
H          0.35400       -3.34400        0.95700
H         -1.78300       -2.89800       -0.60700
H         -2.95000       -1.63200       -0.67800
H         -1.91200       -2.96300        1.90700
H         -3.47500       -3.22200        1.12300
H         -2.52600       -0.84900        2.32600
H         -3.50700        0.22800        0.03100
H         -2.85200        1.57200       -0.89900
H         -2.86400        1.62100        0.88400
H         -0.50500        2.40400        0.04900
