32
6953-22-6.pdb
O          1.40900        0.44900       -0.55900
C          2.38300        0.01600        0.05300
C          3.08700       -1.20800       -0.28800
C          4.19700       -1.71000        0.36400
N          4.57800       -2.87200       -0.26100
C          3.74900       -3.13300       -1.32600
C          3.75700       -4.17900       -2.25900
C          2.79300       -4.14500       -3.27700
C          1.85800       -3.11300       -3.35000
O          1.01700       -3.12300       -4.43400
C          0.49200       -1.83200       -4.76600
C          0.04200       -1.81900       -6.20000
C         -1.01600       -2.63300       -6.61900
C         -1.43800       -2.60600       -7.94700
C         -0.80600       -1.76500       -8.86300
C          0.24600       -0.94800       -8.45400
C          0.66900       -0.97400       -7.12800
C          1.82300       -2.12700       -2.36100
C          2.80300       -2.11100       -1.35600
H          2.78300        0.56600        0.92000
H          4.75600       -1.33900        1.21300
H          5.36400       -3.44900        0.00700
H          4.49400       -4.97500       -2.22200
H          2.78900       -4.92400       -4.03700
H          1.25700       -1.05300       -4.63800
H         -0.36400       -1.59800       -4.12000
H         -1.51100       -3.29100       -5.90700
H         -2.25800       -3.24200       -8.26700
H         -1.13400       -1.74800       -9.89900
H          0.73900       -0.29200       -9.16700
H          1.49100       -0.33100       -6.81900
H          1.07700       -1.34100       -2.36000
