37
69555-14-2.pdb
C          2.56400       -1.74800        1.90900
C          2.59600       -0.75600        0.76100
O          3.16300       -1.40900       -0.37800
C          4.53600       -1.42800       -0.43500
O          5.27800       -0.77400        0.28100
C          4.91800       -2.43700       -1.50600
N          6.36400       -2.54500       -1.67600
C          6.92300       -3.49200       -2.36000
C          6.20500       -4.57800       -3.13500
C          5.02600       -4.31600       -3.84600
C          4.32800       -5.33900       -4.49400
C          4.85300       -6.62600       -4.52500
C          6.06000       -6.89300       -3.88600
C          6.71600       -5.88600       -3.16800
C          8.43000       -3.52600       -2.32400
C          9.08800       -3.12400       -1.14500
C         10.48000       -3.20900       -1.04200
C         11.22500       -3.69200       -2.11900
C         10.58400       -4.06800       -3.30200
C          9.19900       -3.96200       -3.41200
H          2.13600       -1.29800        2.80600
H          3.57100       -2.11300        2.13900
H          1.97000       -2.62700        1.63300
H          3.14600        0.15500        1.02100
H          1.57500       -0.45900        0.49500
H          4.45900       -2.05500       -2.41900
H          4.49200       -3.39900       -1.19800
H          4.62200       -3.31500       -3.92500
H          3.38100       -5.12300       -4.98400
H          4.32500       -7.41600       -5.05300
H          6.48900       -7.89000       -3.93700
H          7.63400       -6.14300       -2.64600
H          8.51700       -2.75100       -0.29800
H         10.97700       -2.90200       -0.13100
H         12.30800       -3.77200       -2.03800
H         11.17000       -4.43400       -4.14000
H          8.72100       -4.24600       -4.34600
