22
6959-71-3.pdb
C          0.98300       -0.07000       -0.06300
C          2.50200       -0.07800       -0.06000
C          3.05500       -1.37900        0.51400
C          4.57600       -1.36300        0.50600
O          5.05900       -2.59400        1.04900
C          6.48600       -2.60900        1.05300
C          6.97000       -3.92300        1.63600
C          8.49000       -3.92300        1.63600
N          9.75100       -3.92300        1.63600
H          0.61200        0.87100       -0.47900
H          0.58900       -0.17400        0.95200
H          0.58900       -0.89000       -0.67200
H          2.86500        0.77300        0.52900
H          2.86500        0.06100       -1.08500
H          2.69500       -2.23900       -0.06500
H          2.69500       -1.53200        1.53900
H          4.94700       -0.52800        1.11400
H          4.94600       -1.24800       -0.52000
H          6.85800       -1.76900        1.65400
H          6.85500       -2.49000        0.02700
H          6.59600       -4.76800        1.04600
H          6.59600       -4.05500        2.65700
