16
696-45-7.pdb
C          3.43100       -1.05700       -0.36900
O          2.63200       -0.04000        0.22900
C          3.27300        1.18400        0.24400
C          2.82700        2.09900        1.16600
C          3.49200        3.30200        1.18400
N          3.17800        4.27400        2.12900
N          4.49900        3.58700        0.35100
C          4.83100        2.62800       -0.52600
N          4.26400        1.42100       -0.63000
H          2.91000       -2.01000       -0.24100
H          4.40200       -1.13800        0.13400
H          3.55900       -0.88600       -1.44300
H          2.02800        1.86700        1.85500
H          2.19200        4.51100        2.12000
H          3.76300        5.08500        1.94200
H          5.63900        2.85300       -1.21400
