17
696-63-9.pdb
C          1.12100       -0.32500       -0.20500
O          2.50100        0.00200       -0.07200
C          3.11700       -0.46900        1.05300
C          2.73300       -1.60300        1.77000
C          3.45500       -1.99700        2.90200
C          4.56600       -1.26300        3.32700
S          5.49400       -1.74600        4.76500
C          4.95800       -0.13900        2.59800
C          4.24100        0.25000        1.46300
H          0.73500        0.20900       -1.07800
H          0.55300        0.00500        0.67000
H          0.98000       -1.39500       -0.38700
H          1.89000       -2.21200        1.46200
H          3.13900       -2.88800        3.44000
H          4.67300       -2.71900        5.18400
H          5.82300        0.44500        2.90400
H          4.55600        1.12600        0.90100
