25
696-71-9.pdb
O          2.72900        0.00100        0.39900
C          1.46600        0.00800       -0.27900
C          0.75000        1.31300        0.08500
C         -0.53400        1.57900       -0.69900
C         -1.82700        1.30600        0.06800
C         -1.90800        0.00900        0.86800
C         -1.83100       -1.28100        0.05900
C         -0.52400       -1.58500       -0.67200
C          0.75400       -1.29200        0.11300
H          3.23100        0.77500        0.09200
H          1.68500       -0.00900       -1.35300
H          1.44600        2.13600       -0.13300
H          0.58900        1.37800        1.16800
H         -0.53200        1.04600       -1.65400
H         -0.55000        2.64200       -0.97400
H         -2.66700        1.35200       -0.63500
H         -1.98100        2.13400        0.77300
H         -2.87600        0.01000        1.38700
H         -1.16100        0.00600        1.66900
H         -2.65200       -1.30400       -0.66900
H         -2.02600       -2.11100        0.75200
H         -0.50600       -1.09400       -1.65000
H         -0.53800       -2.65900       -0.90500
H          1.45800       -2.11300       -0.08100
H          0.58700       -1.33300        1.19500
