15
696-54-8.pdb
O          0.88500        0.09300        0.44100
N          2.10000       -0.07000        0.27500
C          2.84600        0.94500        0.71500
C          4.18600        1.02100        0.56700
C          4.89600        2.21100        1.08000
C          6.21400        2.32100        0.83100
N          6.90800        1.35500        0.13900
C          6.29800        0.19600       -0.28400
C          4.98600       -0.03100       -0.09500
H          2.32500        1.76500        1.20600
H          4.36600        2.97500        1.63600
H          6.80500        3.16800        1.16200
H          7.90000        1.48200       -0.03000
H          6.95100       -0.52000       -0.77100
H          4.52500       -0.95400       -0.42600
