18
696-60-6.pdb
N          1.62100       -0.88600        0.70900
C          2.50200        0.07900        0.05900
C          2.91100        1.17400        1.01000
C          3.63300        0.87200        2.17600
C          3.99700        1.87900        3.07200
C          3.64300        3.19600        2.79900
O          3.96300        4.20900        3.65300
C          2.94300        3.51900        1.64300
C          2.57700        2.51100        0.74900
H          1.26100       -1.53200        0.01000
H          0.81500       -0.38900        1.08400
H          1.98600        0.50200       -0.81100
H          3.39800       -0.42900       -0.31500
H          3.89900       -0.16100        2.39300
H          4.54600        1.61600        3.97000
H          4.40200        3.82700        4.43000
H          2.67600        4.55300        1.44200
H          2.02500        2.77700       -0.14900
