20
6960-45-8.pdb
O          1.33000        0.05000       -0.83300
C          2.33200       -0.05800       -0.06400
O          2.73900        0.76400        0.80600
C          3.09300       -1.30200       -0.21700
N          2.77000       -2.28000       -1.11400
C          3.65600       -3.33300       -1.01600
C          4.55000       -3.00300        0.01100
C          5.54800       -3.92900        0.37500
C          5.63600       -5.15200       -0.29300
C          4.76100       -5.45300       -1.33500
C          3.75300       -4.54600       -1.72600
N          2.88000       -4.90800       -2.84800
O          2.00500       -4.10000       -3.18900
O          3.06900       -6.00400       -3.40200
C          4.20800       -1.70700        0.48000
H          1.97500       -2.20500       -1.74300
H          6.23500       -3.68900        1.18100
H          6.39900       -5.86900        0.00100
H          4.87300       -6.40900       -1.84300
H          4.69200       -1.12600        1.25500
