18
6960-22-1.pdb
C          2.42300       -0.11200       -0.00100
C          0.92500       -0.07000        0.00400
C          0.17200       -1.23900        0.00300
C         -1.22000       -1.14300       -0.00100
C         -1.83300        0.11200       -0.00400
C         -1.00000        1.22100        0.00200
N          0.35600        1.15900        0.00600
C         -3.31400        0.19600       -0.01500
N         -3.91000        1.42700       -0.01700
O         -4.00500       -0.81600       -0.02400
H          2.80200       -1.13900       -0.00200
H          2.81200        0.39500        0.88800
H          2.80400        0.39500       -0.89300
H          0.64900       -2.21400        0.00400
H         -1.82300       -2.04900       -0.00400
H         -1.37900        2.23600        0.00300
H         -3.43900        2.31800       -0.01200
H         -4.92300        1.43800       -0.02800
