19
6968-35-0.pdb
O          0.97200       -0.05000        0.05900
C          2.33100        0.00000        0.05200
C          2.99400        1.22800        0.05500
C          4.39800        1.27400        0.04800
C          5.15100        0.09700        0.03800
C          4.48300       -1.11800        0.03600
C          5.10500       -2.47700        0.01600
C          3.91400       -3.44000        0.05800
C          2.68500       -2.56400        0.04200
O          1.53900       -2.98100        0.03700
C          3.09000       -1.15700        0.04300
H          0.60800        0.84900        0.06200
H          2.44000        2.16300        0.06200
H          4.90500        2.23700        0.05000
H          6.23700        0.13900        0.03200
H          5.75700       -2.62400        0.88300
H          5.68800       -2.62100       -0.89900
H          3.92700       -4.03800        0.97500
H          3.91400       -4.10200       -0.81300
