15
6969-71-7.pdb
O          0.96500       -0.13200       -0.05100
C          2.18500       -0.13200       -0.05100
N          3.01300        0.99500       -0.05000
N          4.34000        0.63100       -0.05100
C          4.29700       -0.66700       -0.05200
C          5.43500       -1.61100       -0.05300
C          5.15800       -2.92600       -0.05300
C          3.78900       -3.41100       -0.05500
C          2.77000       -2.53800       -0.05300
N          3.04700       -1.20000       -0.05100
H          2.70700        1.95800       -0.05100
H          6.43800       -1.20800       -0.05200
H          5.95700       -3.66200       -0.05200
H          3.61500       -4.48200       -0.05700
H          1.72500       -2.83100       -0.05200
