22
6972-71-0.pdb
C         -1.75700        1.90700       -0.01500
C         -0.77100        0.76900       -0.01400
C          0.60600        1.05600        0.02100
C          1.58500        0.04900       -0.00100
N          2.91800        0.44700        0.20600
C          1.14300       -1.28700        0.01100
C         -0.23400       -1.59100       -0.01900
C         -1.19700       -0.57000       -0.02700
C         -2.65900       -0.92900       -0.02900
N          2.09300       -2.41400        0.00300
O          3.30800       -2.16600       -0.08300
O          1.62600       -3.56300        0.05100
H         -1.25200        2.87800        0.00300
H         -2.40100        1.85400        0.86800
H         -2.37300        1.87300       -0.92000
H          0.92500        2.09600        0.07600
H          3.15800        1.36000       -0.16800
H          3.60600       -0.26900       -0.04200
H         -0.56700       -2.62800       -0.02400
H         -2.80600       -2.01500       -0.02900
H         -3.14900       -0.52900       -0.92200
H         -3.14600       -0.53200        0.86600
