17
6975-60-6.pdb
C          2.83000       -1.49300       -0.27900
C          2.52500       -0.01900       -0.17400
O          1.68200        0.50300       -0.90900
C          3.21600        0.77400        0.91200
C          4.68200        0.77000        0.70400
O          5.37200       -0.25700        1.28000
C          6.68100       -0.07700        0.96900
C          6.84400        1.05800        0.21000
C          5.55000        1.60900        0.03800
H          2.26700       -1.92400       -1.11200
H          2.53200       -1.99500        0.64500
H          3.89200       -1.65300       -0.47200
H          2.94600        0.34900        1.88400
H          2.83800        1.80300        0.88800
H          7.36000       -0.82400        1.35500
H          7.78100        1.44100       -0.17100
H          5.28400        2.50600       -0.50300
