34
6975-99-1.pdb
C          0.90700        0.04200        0.08800
C          2.42500        0.05100        0.07700
C          2.95700        0.74000       -1.17500
C          4.48500        0.75100       -1.19500
C          5.00400        1.44000       -2.45000
C          6.52400        1.44000       -2.45000
C          7.82800        1.44000       -2.45000
C          9.34800        1.44000       -2.45000
C          9.86900        1.10800       -3.84400
C         11.39500        1.10100       -3.86500
C         11.92700        0.77000       -5.25600
C         13.44600        0.76600       -5.27000
H          0.53600       -0.45400        0.99100
H          0.51200       -0.49200       -0.78100
H          0.51000        1.06200        0.07400
H          2.79400       -0.98100        0.12200
H          2.79200        0.56600        0.97300
H          2.58300        1.77000       -1.21700
H          2.58400        0.22400       -2.06800
H          4.86300       -0.27800       -1.15000
H          4.86300        1.26500       -0.30300
H          4.65100        2.47600       -2.49700
H          4.65100        0.92300       -3.35000
H          9.70100        0.70300       -1.72000
H          9.70200        2.42700       -2.13100
H          9.49000        1.84100       -4.56700
H          9.48900        0.12800       -4.16000
H         11.76900        0.36700       -3.14200
H         11.77000        2.08400       -3.55100
H         11.55900        1.50500       -5.98200
H         11.55800       -0.21300       -5.57300
H         13.84100        1.74700       -4.98500
H         13.81600        0.52700       -6.27100
H         13.84100        0.02100       -4.57200
