15
69778-83-2.pdb
C          1.15600        0.19800        0.14300
O          2.54900       -0.03600       -0.03600
C          3.23000        0.99000       -0.64300
C          4.32000        0.79700       -1.39100
C          4.79000        2.13100       -1.78000
O          5.76400        2.36600       -2.46800
N          3.93700        3.04800       -1.21900
C          2.88900        2.43400       -0.46700
H          0.71700       -0.70400        0.57900
H          0.66800        0.38600       -0.81900
H          0.97900        1.02700        0.83500
H          4.80700       -0.12200       -1.66000
H          4.08500        4.04000       -1.34000
H          1.92800        2.70900       -0.91200
H          2.94900        2.76200        0.57300
