24
698-90-8.pdb
N          1.12900       -0.52100       -1.35300
C          2.46000       -0.46600       -1.59400
O          2.90200        0.01800       -2.62400
N          3.20300       -0.94900       -0.55900
C          4.65900       -0.99600       -0.61700
C          5.13500       -2.31400       -1.24300
C          6.65700       -2.43800       -1.21900
C          7.21700       -2.24600        0.18700
C          6.76100       -0.92200        0.79100
C          5.24100       -0.80300        0.78700
H          0.51900       -0.17800       -2.08400
H          0.72800       -1.01900       -0.57700
H          2.74100       -1.57300        0.08200
H          5.00100       -0.16800       -1.25200
H          4.77900       -2.39000       -2.27800
H          4.69500       -3.16200       -0.70200
H          7.09500       -1.69000       -1.89100
H          6.95200       -3.42200       -1.60100
H          8.31200       -2.28100        0.15700
H          6.88800       -3.07300        0.82800
H          7.19600       -0.09100        0.22200
H          7.13500       -0.83600        1.81800
H          4.94900        0.18000        1.17800
H          4.81600       -1.54800        1.47400
