24
698-76-0.pdb
C          0.90700       -0.62100        0.61400
C          2.42200       -0.50900        0.50900
C          2.91300        0.80600        1.11700
C          4.43600        0.97900        1.01000
C          4.94500        2.29600        1.58800
C          4.52600        3.49500        0.74700
C          4.17200        3.14000       -0.69000
C          4.87000        1.90700       -1.19400
O          5.32000        1.83100       -2.33400
O          4.89900        0.84700       -0.34900
H          0.56500       -1.57200        0.19600
H          0.41600        0.18800        0.06300
H          0.58200       -0.56900        1.65800
H          2.70800       -0.57200       -0.54800
H          2.88600       -1.35600        1.02700
H          2.62100        0.85800        2.17300
H          2.38800        1.62100        0.61400
H          4.91000        0.16300        1.57000
H          6.04300        2.26400        1.60000
H          4.62300        2.42600        2.62800
H          5.33600        4.23500        0.75600
H          3.66500        3.99100        1.21200
H          4.42300        3.98400       -1.34200
H          3.09400        2.98300       -0.80500
