18
698-27-1.pdb
C          2.51400        1.18100        0.00100
C          1.25800        0.36200        0.00300
C          1.30600       -1.03800        0.00700
C          0.12600       -1.78800       -0.00300
C         -1.11000       -1.13600       -0.01300
C         -2.33900       -1.94900       -0.03300
O         -3.44700       -1.42000       -0.03400
C         -1.16400        0.26100       -0.00800
O         -2.33700        0.96600       -0.00700
C          0.01300        1.00600       -0.00300
H          3.40800        0.54800        0.00800
H          2.54800        1.82100        0.88900
H          2.55300        1.80800       -0.89600
H          2.26400       -1.55500        0.01800
H          0.18800       -2.87300       -0.00300
H         -2.22000       -3.04500       -0.04900
H         -3.07900        0.32000       -0.00300
H         -0.04600        2.09200       -0.00500
