16
698-29-3.pdb
C          1.09600        0.08200       -0.11100
C          2.59300        0.07700       -0.11000
N          3.21600       -1.11400       -0.12900
C          4.56200       -1.08200       -0.08400
C          5.29500        0.08200       -0.02300
C          6.71500        0.04500        0.01700
N          7.87600        0.00100        0.01600
C          4.56800        1.25700       -0.02200
N          5.16400        2.50900        0.12200
N          3.22400        1.26800       -0.06300
H          0.70000       -0.93900       -0.11400
H          0.72200        0.60200       -0.99700
H          0.72600        0.59100        0.78400
H          5.04200       -2.05700       -0.09200
H          5.96800        2.67300       -0.47600
H          4.44900        3.22500        0.02300
