14
699-98-9.pdb
O          1.07200        0.37400       -0.06700
C          2.26000        0.12100       -0.06600
O          3.29700        0.99700       -0.06600
C          4.50800        0.36600       -0.06600
O          5.59700        0.90300       -0.06700
C          4.19500       -1.05400       -0.06500
N          5.08300       -2.06700       -0.06400
C          4.52400       -3.30200       -0.06500
C          3.14500       -3.53800       -0.06700
C          2.27200       -2.44800       -0.06800
C          2.84400       -1.19300       -0.06600
H          5.23000       -4.13000       -0.06400
H          2.76400       -4.55500       -0.06900
H          1.19400       -2.57900       -0.07000
