19
699-83-2.pdb
C          2.16600       -0.02100       -1.38500
C          2.43800        0.03300        0.09500
O          1.92800       -0.79700        0.85600
C          3.20400        1.16100        0.70200
C          2.90600        1.53000        2.02800
O          1.96900        0.88500        2.79700
C          3.55800        2.59500        2.64900
C          4.54400        3.29800        1.96400
C          4.87800        2.93000        0.66200
C          4.21400        1.86800        0.03500
O          4.60600        1.52200       -1.22600
H          1.71600       -0.99000       -1.62100
H          3.06900        0.04600       -1.98800
H          1.45600        0.76600       -1.65800
H          1.72100        0.05500        2.32900
H          3.30100        2.86600        3.67000
H          5.06000        4.12200        2.45000
H          5.66400        3.48100        0.15100
H          5.36000        2.07400       -1.49800
