22
699-02-5.pdb
C          2.52900       -0.04600       -0.01800
C          1.03000       -0.00100       -0.02500
C          0.34100        1.21700       -0.02500
C         -1.05500        1.24300       -0.02400
C         -1.78800        0.05000       -0.01500
C         -3.29900        0.06100       -0.01000
C         -3.90600        0.10200       -1.41300
O         -3.58700       -1.06900       -2.16000
C         -1.09600       -1.16900       -0.02100
C          0.29900       -1.19400       -0.02700
H          2.96200        0.95900        0.00500
H          2.89500       -0.55100       -0.91700
H          2.88600       -0.58400        0.86700
H          0.88900        2.15700       -0.02100
H         -1.56800        2.20300       -0.02000
H         -3.65100        0.92700        0.56400
H         -3.65700       -0.82900        0.52100
H         -3.57200        0.97800       -1.97900
H         -4.99700        0.14800       -1.33500
H         -2.62700       -1.04100       -2.32500
H         -1.64400       -2.11000       -0.02000
H          0.81400       -2.15200       -0.02800
