20
6994-25-8.pdb
C          6.40600        0.16800       -0.82400
C          5.28200        0.79200       -0.01500
O          5.12600        0.02700        1.18600
C          4.34600       -1.08900        1.07000
O          3.55000       -1.28700        0.16100
C          4.68000       -2.06800        2.08000
C          5.64000       -1.96700        3.11500
N          5.74800       -3.08700        3.83800
N          4.85200       -3.90900        3.26300
C          4.18100       -3.34800        2.20900
N          3.25500       -4.03100        1.51000
H          6.62800        0.75400       -1.71700
H          6.14500       -0.85300       -1.12800
H          7.31300        0.08600       -0.21400
H          4.35200        0.85400       -0.59000
H          5.55600        1.81100        0.27800
H          6.27800       -1.12600        3.35600
H          4.75000       -4.84700        3.63300
H          3.08800       -5.02900        1.59900
H          2.84400       -3.61600        0.67000
