33
69975-86-6.pdb
C          1.01500        0.06200       -0.14100
N          2.46100       -0.03300       -0.14500
C          3.04700       -1.31300       -0.15100
O          2.35900       -2.33600       -0.20400
N          4.44000       -1.37200       -0.08700
C          5.12500       -2.65200       -0.07700
C          5.16300       -0.20500       -0.02100
N          6.51200       -0.11800        0.12700
C          6.74800        1.17500        0.19100
N          5.60700        1.91700        0.00100
C          5.54100        3.36700       -0.01000
C          6.39100        4.04800       -1.08900
O          6.03000        3.64300       -2.41400
C          7.24700        3.20700       -3.02400
C          8.34000        3.83100       -2.19500
O          7.79400        3.84400       -0.87700
C          4.56900        1.02200       -0.06400
C          3.15600        1.18500       -0.13400
O          2.59800        2.27700       -0.15600
H          0.52300       -0.91400       -0.13400
H          0.69000        0.61900       -1.02700
H          0.70100        0.61900        0.74800
H          4.42500       -3.49100       -0.10100
H          5.73100       -2.72900        0.83100
H          5.77400       -2.71400       -0.95700
H          7.71800        1.62500        0.36700
H          5.85900        3.69200        0.98800
H          4.49900        3.66000       -0.15400
H          6.21300        5.12800       -1.03000
H          7.28200        3.51100       -4.07400
H          7.27800        2.11400       -2.96800
H          8.53600        4.86600       -2.49600
H          9.27500        3.26600       -2.22000
