37
70-18-8.pdb
N          1.28400        0.18000       -0.23600
C          0.33300       -0.51300        0.68300
C          0.93600       -1.77300        1.31400
C          2.14500       -1.51400        2.22100
C          2.65100       -2.81800        2.79200
O          3.01100       -3.74900        2.07600
N          2.69800       -2.87200        4.16000
C          3.18300       -4.05400        4.86600
C          4.68500       -4.00800        5.19100
S          5.81000       -3.89100        3.76400
C          2.44100       -4.14400        6.21500
O          2.05800       -3.14400        6.81600
N          2.34300       -5.41700        6.74700
C          1.55500       -5.65100        7.96500
C          2.38500       -5.68300        9.24800
O          3.70900       -5.48900        9.05000
O          1.91400       -5.90500       10.35500
C         -0.13100        0.47300        1.76900
O          0.39000        1.71100        1.56600
O         -0.84800        0.19000        2.71400
H          1.31000       -0.35900       -1.10900
H          2.23900        0.09200        0.12200
H         -0.55700       -0.77200        0.09800
H          1.21400       -2.47600        0.51800
H          0.16300       -2.28000        1.90600
H          1.88800       -0.82000        3.02700
H          2.97800       -1.07000        1.66400
H          2.31500       -2.11500        4.72300
H          2.94200       -4.94400        4.27200
H          4.96600       -4.91300        5.74100
H          4.90600       -3.16100        5.85100
H          4.94000       -4.31200        2.82700
H          2.37000       -6.19000        6.08700
H          1.08200       -6.63000        7.84900
H          0.79000       -4.87600        8.06600
H          3.87800       -5.30000        8.10600
H          0.89000        1.65300        0.71300
