15
70-49-5.pdb
O          2.04900       -0.22100       -1.31900
C          2.45600        0.03100       -0.05800
O          2.25300       -0.74200        0.86500
C          3.21000        1.32000        0.09300
C          4.71600        1.08900        0.07800
S          5.30600        0.57400       -1.58600
C          5.45500        2.36000        0.48100
O          6.80500        2.24200        0.42800
O          4.91000        3.40100        0.81800
H          2.33600        0.43600       -1.98300
H          2.90100        1.74300        1.06000
H          2.88500        2.05200       -0.65500
H          4.98500        0.30800        0.79800
H          4.99600        1.71200       -2.22900
H          7.09900        1.37800        0.06900
