20
70-55-3.pdb
C          2.50300        0.00700       -0.00400
C          1.00300        0.01700        0.03200
C          0.29100        1.22400        0.02300
C         -1.10400        1.22100        0.01000
C         -1.78700        0.00300       -0.00300
C         -1.09400       -1.20800        0.04400
C          0.30100       -1.19700        0.05500
S         -3.55000       -0.01200       -0.10100
N         -3.77800       -0.11800       -1.76200
O         -4.05200       -1.24700        0.45100
O         -4.06500        1.28000        0.28700
H          2.91100        1.02300       -0.00300
H          2.85100       -0.49400       -0.91400
H          2.89900       -0.51700        0.87000
H          0.82000        2.17500        0.01300
H         -1.64600        2.16400       -0.00700
H         -1.62700       -2.15500        0.05200
H          0.84200       -2.14100        0.07100
H         -4.24500       -0.99300       -1.99800
H         -4.24600        0.71900       -2.10800
