18
70-57-5.pdb
C          2.48200       -0.07200        0.00600
C          0.98800       -0.00100        0.00200
C          0.20800       -1.15100       -0.00700
N         -1.14400       -1.14800       -0.01100
C         -1.75100        0.06500       -0.00500
C         -1.07600        1.27700        0.00600
C          0.32400        1.23100        0.00900
C         -1.75700        2.59500        0.01700
N         -3.12400        2.63900        0.01900
O         -1.11500        3.64000        0.02500
H          2.83400       -1.10900       -0.00700
H          2.88200        0.40600        0.90500
H          2.88800        0.42900       -0.88000
H          0.65800       -2.14100       -0.01000
H         -2.83200        0.00000       -0.01000
H          0.89600        2.15800        0.01700
H         -3.74700        1.84700        0.01700
H         -3.54500        3.56100        0.02900
