21
700-93-6.pdb
C         -1.36500        0.85200        0.17800
C          0.05300        1.41500        0.09200
S          1.14000       -0.01900        0.07300
C         -0.18600       -1.13600       -0.45100
N         -1.39100       -0.62100        0.21800
C         -0.28400       -1.26700       -1.95600
C         -1.43300       -0.95900       -2.69600
C         -1.44100       -1.11100       -4.08000
C         -0.29800       -1.59200       -4.69500
N          0.82200       -1.93100       -4.02600
C          0.80100       -1.76400       -2.68100
H         -1.95900        1.21200       -0.67000
H         -1.86700        1.24000        1.07300
H          0.28900        2.05700        0.94500
H          0.18900        1.98400       -0.83100
H          0.02100       -2.13600       -0.05200
H         -1.30000       -0.89800        1.19600
H         -2.33400       -0.60400       -2.20300
H         -2.32000       -0.86300       -4.66400
H         -0.25400       -1.72600       -5.77100
H          1.72500       -2.05400       -2.18500
