20
700-06-1.pdb
O          2.82500        1.26200       -0.48900
C          2.45600       -0.02200        0.01100
C          2.84400       -1.12100       -0.91800
C          3.49400       -0.99900       -2.13300
N          3.62800       -2.24100       -2.68100
C          3.07300       -3.18900       -1.85500
C          2.95700       -4.57500       -2.02100
C          2.33500       -5.30000       -1.00100
C          1.86100       -4.66500        0.14400
C          1.98300       -3.27800        0.29300
C          2.59200       -2.51900       -0.72800
H          2.48800        1.91200        0.14900
H          1.37000       -0.02900        0.15400
H          2.93900       -0.16100        0.98200
H          3.85800       -0.11900       -2.64700
H          4.06000       -2.44000       -3.57300
H          3.32700       -5.07200       -2.91200
H          2.22200       -6.37600       -1.10400
H          1.38500       -5.24900        0.92700
H          1.60400       -2.79500        1.18800
