25
700-58-3.pdb
O          1.08100        0.08500        0.04800
C          2.30900        0.08500        0.04900
C          3.13600       -0.97300       -0.66600
C          4.01500       -0.25200       -1.69600
C          4.91100        0.79000       -0.99500
C          5.79100        0.08400        0.05000
C          4.90900       -0.62200        1.09500
C          4.01400       -1.66000        0.38900
C          4.01400        0.42100        1.79500
C          3.13700        1.14300        0.76400
C          4.01600        1.82900       -0.29000
H          2.47300       -1.69500       -1.15400
H          3.38700        0.24600       -2.44600
H          4.63800       -0.98100       -2.22800
H          5.54400        1.29100       -1.73600
H          6.44400        0.81400        0.54300
H          6.44400       -0.64700       -0.44300
H          5.54100       -1.12300        1.83600
H          3.38500       -2.17000        1.13000
H          4.63700       -2.42600       -0.08900
H          4.63800        1.15000        2.32600
H          3.38600       -0.07600        2.54400
H          2.47400        1.86500        1.25100
H          4.64000        2.59400        0.18800
H          3.38800        2.34000       -1.03100
