18
700-87-8.pdb
C          1.05000       -0.40500        0.09400
O          2.43900       -0.15100       -0.08800
C          3.13100        0.31400        1.00300
C          2.75300        0.03600        2.32400
C          3.54200        0.46500        3.39100
C          4.71200        1.17700        3.15100
C          5.09300        1.46400        1.83800
C          4.31600        1.04600        0.74500
N          4.83500        1.33000       -0.54100
C          4.04200        1.69200       -1.32600
O          3.26900        2.05900       -2.13600
H          0.62200       -0.62900       -0.88900
H          0.53400        0.47500        0.49300
H          0.88700       -1.28200        0.72700
H          1.86600       -0.54600        2.55100
H          3.25300        0.22300        4.41100
H          5.33800        1.49400        3.98100
H          6.01800        2.00900        1.66100
