32
702-79-4.pdb
C          0.90000        0.03100       -0.07400
C          2.43100        0.03100       -0.07400
C          2.96700        0.90500        1.08300
C          4.50500        0.90900        1.08500
C          5.01300        1.46800       -0.25300
C          4.50500        0.59800       -1.41400
C          2.96700        0.59500       -1.41000
C          5.01600       -0.84100       -1.23200
C          4.51200       -1.42700        0.10700
C          5.02400       -2.86000        0.28500
C          5.01600       -0.53100        1.26100
C          2.96500       -1.41000        0.10500
H          0.50500        1.04500       -0.20000
H          0.50500       -0.36700        0.86700
H          0.50500       -0.58600       -0.88900
H          2.59900        0.52700        2.04600
H          2.59600        1.93300        0.98600
H          4.87100        1.53300        1.90800
H          6.11000        1.49300       -0.25600
H          4.67100        2.50200       -0.38100
H          4.87100        1.00200       -2.36400
H          2.59800       -0.00600       -2.25100
H          2.59600        1.61600       -1.56700
H          6.11300       -0.84900       -1.26100
H          4.67400       -1.46200       -2.07100
H          6.11900       -2.89100        0.28900
H          4.67400       -3.50800       -0.52700
H          4.67400       -3.29000        1.23000
H          6.11300       -0.53100        1.29100
H          4.67500       -0.92800        2.22700
H          2.58600       -1.83500        1.04400
H          2.58600       -2.05100       -0.70200
