23
702-23-8.pdb
C          1.16700       -0.36500       -0.43000
O          2.39200        0.11100        0.10900
C          3.06800       -0.72900        0.94900
C          2.67000       -2.01100        1.33100
C          3.46500       -2.76900        2.19800
C          4.66500       -2.25000        2.70400
C          5.53100       -3.06000        3.64000
C          6.54000       -3.94600        2.91100
O          7.49000       -3.17300        2.18400
C          5.06000       -0.96400        2.31700
C          4.26600       -0.21300        1.44900
H          0.77400        0.40700       -1.09900
H          0.42700       -0.53000        0.36000
H          1.32000       -1.27200       -1.02500
H          1.74500       -2.45000        0.97300
H          3.13500       -3.76500        2.48400
H          4.89000       -3.68400        4.27400
H          6.06000       -2.37400        4.31400
H          6.05200       -4.64100        2.22000
H          7.10000       -4.53700        3.64300
H          7.00400       -2.73900        1.46000
H          5.98700       -0.53500        2.69300
H          4.58300        0.78500        1.15700
