24
702-24-9.pdb
C          0.91000        0.20300       -1.52900
N          2.36600        0.21200       -1.48000
C          2.87700       -0.98200       -0.80600
C          4.38800       -0.99700       -0.75200
C          5.09700       -0.01400       -0.04600
C          6.49500       -0.04800        0.02800
C          7.20700       -1.06900       -0.59900
O          8.56800       -1.21700       -0.60200
C          9.31800       -0.23700        0.10400
C          6.50800       -2.05400       -1.30000
C          5.11300       -2.01900       -1.37900
H          0.55800        1.09500       -2.05700
H          0.47300        0.21200       -0.52500
H          0.53700       -0.67000       -2.07400
H          2.67800        1.04000       -0.97600
H          2.52600       -1.87500       -1.33700
H          2.49500       -1.04700        0.22100
H          4.56500        0.79200        0.45400
H          6.99300        0.74100        0.58300
H         10.37900       -0.47000       -0.02300
H          9.09400       -0.27000        1.17600
H          9.14800        0.76500       -0.30500
H          7.05400       -2.85300       -1.79200
H          4.59700       -2.79900       -1.93500
