30
702-98-7.pdb
C          0.98900        0.14900       -0.02200
C          2.51900        0.03700       -0.08500
O          3.02100        1.21800        0.55400
C          3.05400       -0.02600       -1.54100
C          4.60000       -0.01300       -1.52800
C          5.13400       -1.22900       -0.74900
C          4.64500       -2.51800       -1.43100
C          3.10700       -2.55000       -1.44900
C          2.59400       -1.32700       -2.23000
C          2.59200       -2.50400        0.00100
C          3.05100       -1.20100        0.68600
C          4.59800       -1.18600        0.69300
H          0.64900        1.05500       -0.53600
H          0.65600        0.24300        1.01900
H          0.46600       -0.70100       -0.46500
H          2.73500        1.98600        0.03000
H          2.70600        0.84500       -2.10900
H          4.97400        0.91400       -1.07700
H          4.98100       -0.03400       -2.55700
H          6.22900       -1.21100       -0.73800
H          5.03200       -3.39500       -0.89800
H          5.03300       -2.57200       -2.45600
H          2.76300       -3.47000       -1.93500
H          1.50200       -1.36000       -2.31200
H          2.97800       -1.35600       -3.25800
H          2.97500       -3.36900        0.55700
H          1.50000       -2.59200        0.01900
H          2.70200       -1.17800        1.72500
H          4.97500       -2.04900        1.25600
H          4.97200       -0.29300        1.20600
