22
7021-09-2.pdb
C          2.69600        1.01800        0.58800
O          2.50000       -0.17800       -0.17000
C          2.97700       -1.35700        0.52700
C          2.42200       -2.59800       -0.19800
O          1.62700       -2.25600       -1.25100
O          2.61700       -3.75700        0.13100
C          4.49000       -1.38200        0.61500
C          5.11400       -2.01100        1.70100
C          6.50000       -1.95100        1.85000
C          7.27400       -1.26400        0.91700
C          6.67100       -0.67100       -0.18900
C          5.29000       -0.75000       -0.35200
H          2.38100        1.86400       -0.02900
H          3.74900        1.17000        0.84200
H          2.09600        0.99900        1.50100
H          2.52200       -1.35500        1.52600
H          1.62200       -1.27200       -1.31700
H          4.52400       -2.54800        2.44300
H          6.97500       -2.43300        2.70000
H          8.35000       -1.19600        1.04900
H          7.27200       -0.13200       -0.91700
H          4.83400       -0.27000       -1.21700
