29
7028-79-7.pdb
C          1.18300       -0.73500       -0.38700
S          2.77000       -0.10600        0.09700
O          2.57900        0.83300        1.18500
O          3.68100       -1.22800        0.22100
C          3.29000        0.83600       -1.32500
C          2.95400        2.19000       -1.42500
C          3.37500        2.92200       -2.53900
C          4.13300        2.30500       -3.54500
C          4.50400        0.96200       -3.41100
C          4.08100        0.22500       -2.30300
C          4.44800        3.08800       -4.77400
O          4.34900        4.31500       -4.78100
C          4.70200        2.37100       -6.08000
C          3.44400        1.67800       -6.57500
C          2.22100        2.52700       -6.85300
O          2.31700        3.85600       -6.69300
O          1.17000        2.00900       -7.21300
H          0.79000       -1.32700        0.44400
H          1.29600       -1.36700       -1.26900
H          0.51000        0.10200       -0.59100
H          2.36700        2.68000       -0.65100
H          3.09200        3.97100       -2.62600
H          5.11600        0.46100       -4.15600
H          4.37100       -0.82000       -2.21100
H          5.53500        1.67100       -5.96900
H          5.03300        3.11500       -6.81700
H          3.13200        0.91600       -5.85200
H          3.68700        1.16100       -7.51100
H          3.13400        4.25100       -6.31900
