22
703-23-1.pdb
C          0.95200        0.01800        0.13100
O          2.36900       -0.01100        0.24100
C          3.05100        1.17400        0.13700
C          2.41500        2.42400        0.14100
C          3.16000        3.60600        0.09100
C          4.54700        3.55300        0.03500
C          5.19400        2.31300        0.01100
O          6.55800        2.29800       -0.10400
C          4.46100        1.11400        0.06600
C          5.14800       -0.21300       -0.01500
C          6.43400       -0.44200        0.74500
O          4.66900       -1.12400       -0.69300
H          0.59400       -1.01600        0.11400
H          0.62700        0.49600       -0.79900
H          0.50600        0.50800        1.00300
H          1.33400        2.51400        0.18300
H          2.64900        4.56500        0.09400
H          5.10500        4.48000       -0.00700
H          6.89400        3.21000       -0.09500
H          6.75200        0.41700        1.33700
H          7.22300       -0.69400        0.02900
H          6.29600       -1.27600        1.44000
