39
70311-20-5.pdb
C          8.83600        0.08700       -1.90500
C          8.27000        1.03800       -0.86500
O          8.30400        0.37000        0.40300
C          7.22800       -0.42700        0.66200
O          6.16600       -0.40400        0.05800
C          7.59300       -1.39500        1.75500
C          6.44600       -2.36500        2.02500
C          6.79400       -3.40500        3.06100
C          7.19000       -3.02900        4.34900
C          7.49800       -3.97800        5.33700
O          7.89600       -3.61300        6.59700
C          8.02700       -2.23100        6.90100
C          7.39300       -5.35400        5.03200
O          7.70500       -6.39900        5.86400
C          8.13700       -6.15800        7.19200
C          6.95900       -5.73200        3.74000
O          6.81600       -7.01700        3.26900
C          6.27800       -7.96200        4.18500
C          6.68500       -4.76300        2.76800
H          8.86500        0.54700       -2.89300
H          8.24600       -0.83400       -1.95600
H          9.85400       -0.21400       -1.62300
H          7.26000        1.37300       -1.12700
H          8.89900        1.92900       -0.78600
H          7.85100       -0.81900        2.65000
H          8.47900       -1.95300        1.42600
H          6.16000       -2.85800        1.08700
H          5.55500       -1.81800        2.36400
H          7.25700       -1.96500        4.56400
H          8.29700       -2.14600        7.95900
H          7.08300       -1.69700        6.76100
H          8.83400       -1.77600        6.31400
H          8.30300       -7.13100        7.66400
H          7.36500       -5.64800        7.77700
H          9.09300       -5.62700        7.20800
H          5.78600       -8.74900        3.60200
H          5.52000       -7.52600        4.84800
H          7.07800       -8.44200        4.75600
H          6.36900       -5.08800        1.77800
