24
705-76-0.pdb
C          1.25300       -0.07400       -0.44400
O          2.47700        0.19600        0.22800
C          3.17300       -0.88100        0.70800
C          2.76800       -2.21600        0.63900
C          3.57800       -3.23400        1.16900
C          3.15200       -4.67600        1.10600
O          4.11000       -5.44400        0.39100
C          4.79700       -2.89500        1.77800
C          5.21600       -1.56700        1.84200
O          6.39300       -1.12200        2.37600
C          7.27500       -2.10800        2.89900
C          4.39600       -0.56700        1.31300
H          0.86600        0.88000       -0.82100
H          0.51100       -0.48600        0.24900
H          1.40500       -0.73000       -1.30200
H          1.82300       -2.49000        0.18200
H          2.18700       -4.79100        0.60400
H          3.05700       -5.08400        2.11800
H          4.23100       -5.01000       -0.47100
H          5.40000       -3.70000        2.19000
H          8.22900       -1.62000        3.12100
H          7.48000       -2.90100        2.17200
H          6.87800       -2.52000        3.83200
H          4.71300        0.47000        1.36700
