30
705-86-2.pdb
C          0.80800       -0.55900        0.57300
C          2.32000       -0.48200        0.44900
C          2.86900       -1.39600       -0.65100
C          4.39200       -1.26700       -0.72500
C          5.02700       -2.17600       -1.78400
C          6.55900       -2.01100       -1.79900
C          7.29000       -2.83800       -2.84900
C          7.38600       -4.31700       -2.49500
C          7.06900       -4.62100       -1.04100
C          7.46000       -3.51200       -0.10700
O          7.97700       -3.72800        0.98600
O          7.13400       -2.25700       -0.49900
H          0.46600        0.09900        1.37900
H          0.48200       -1.57700        0.80600
H          0.32100       -0.24000       -0.35300
H          2.76900       -0.75700        1.41200
H          2.60900        0.55600        0.24500
H          2.42200       -1.12800       -1.61700
H          2.59200       -2.43600       -0.44100
H          4.81100       -1.50400        0.26000
H          4.65400       -0.22400       -0.94400
H          4.62400       -1.93000       -2.77400
H          4.74100       -3.21000       -1.57200
H          6.76900       -0.95700       -2.01900
H          8.31900       -2.45600       -2.91300
H          6.85200       -2.70400       -3.84400
H          8.39900       -4.66800       -2.72900
H          6.71400       -4.89900       -3.13700
H          7.59600       -5.53400       -0.74400
H          6.00300       -4.82300       -0.90200
