21
705-60-2.pdb
C          1.58300       -0.36100        1.67400
C          2.71500       -0.28500        0.70300
C          3.14900       -1.22300       -0.16000
C          2.52300       -2.53900       -0.31500
C          1.49000       -2.71500       -1.24400
C          0.88100       -3.96500       -1.38800
C          1.30400       -5.04100       -0.61000
C          2.34100       -4.87300        0.30800
C          2.95000       -3.62400        0.45600
N          3.42700        0.99900        0.70400
O          3.01800        1.87400        1.48000
O          4.38700        1.14600       -0.06500
H          1.15600       -1.36600        1.73900
H          0.77400        0.31800        1.38000
H          1.91000       -0.09800        2.68800
H          3.99500       -1.06000       -0.82600
H          1.15600       -1.88800       -1.86500
H          0.08000       -4.09800       -2.11000
H          0.83000       -6.01200       -0.72200
H          2.67700       -5.71500        0.90700
H          3.76000       -3.51000        1.17300
