79
7064-33-7.pdb
C          2.66200       -0.29300        3.86100
C          2.33800       -0.90200        2.50700
C          2.91400       -0.07300        1.35700
N          4.37200        0.06300        1.36900
C          5.08400       -1.13600        1.22300
O          4.55500       -2.22700        1.01300
C          6.55000       -1.06100        1.34700
C          7.16000        0.12800        1.44500
C          8.67300        0.25300        1.55400
C          6.36800        1.36000        1.42800
C          4.99600        1.32500        1.42000
N          4.26000        2.53900        1.39400
C          3.34100        2.86600        0.28700
C          3.43900        4.35500       -0.05600
C          2.55400        4.67700       -1.25600
C          3.07400        5.18700        1.17700
C          3.98900        4.81100        2.35800
C          3.58800        5.60600        3.60100
C          3.97400        3.29100        2.63100
C          7.05600        2.64300        1.29700
C          7.16100        3.32900        0.15300
S          6.55900        2.90100       -1.39500
C          7.06100        4.42600       -2.10900
S          6.58800        4.86500       -3.64400
N          7.85300        5.12100       -1.21000
C          8.50700        6.39600       -1.53600
C          9.90700        6.54600       -0.92900
C         10.57700        7.85400       -1.24700
C         10.87300        8.72200       -0.19400
C         11.53500        9.92200       -0.43400
C         11.93500       10.27700       -1.73000
O         12.56200       11.47100       -1.97000
C         13.39000       11.95800       -0.91700
C         11.63000        9.41900       -2.79700
O         11.89900        9.61200       -4.12800
C         12.99900       10.45000       -4.45100
C         10.94700        8.21700       -2.54500
C          7.86600        4.62500        0.08500
O          8.35400        5.15400        1.07700
C          7.36200       -2.34600        1.35200
N          8.03500       -3.41200        1.35600
H          2.25700       -0.91900        4.66000
H          2.22200        0.70600        3.95100
H          3.74200       -0.20700        4.01400
H          1.24800       -0.94600        2.38600
H          2.69300       -1.93500        2.47800
H          2.41900        0.89100        1.42200
H          2.63000       -0.51600        0.39400
H          9.18300       -0.70100        1.68500
H          8.95300        0.86500        2.42000
H          9.08600        0.70600        0.64700
H          2.30400        2.65800        0.57800
H          3.56400        2.25300       -0.59200
H          4.46700        4.60900       -0.32600
H          1.50100        4.45500       -1.05200
H          2.86100        4.08300       -2.12400
H          2.63600        5.73300       -1.53000
H          2.02200        5.02400        1.44700
H          3.18100        6.25500        0.94900
H          5.01500        5.10000        2.09300
H          2.55300        5.39800        3.89200
H          3.67400        6.68200        3.41500
H          4.23600        5.36100        4.44900
H          2.99400        2.98600        3.01900
H          4.71500        3.05600        3.40600
H          7.54300        3.01000        2.20000
H          7.84300        7.20400       -1.20100
H          8.59600        6.48500       -2.62100
H         10.55200        5.71900       -1.24000
H          9.85100        6.48300        0.16000
H         10.59200        8.47700        0.82700
H         11.71100       10.56600        0.41800
H         13.96000       12.80800       -1.30300
H         14.10300       11.19300       -0.58900
H         12.79200       12.32500       -0.07700
H         13.21500       10.32000       -5.51700
H         13.89900       10.16300       -3.89600
H         12.75100       11.50500       -4.30800
H         10.72700        7.55800       -3.38500
