45
706806-60-2.pdb
C          3.97700        1.51500       -0.46000
C          2.93400        0.38700       -0.46600
C          2.55100       -0.06400        0.95200
C          1.66500        0.92800       -1.14500
O          3.38500       -0.74100       -1.26800
C          4.50500       -1.40800       -0.88500
O          5.20300       -1.11300        0.08200
N          4.82500       -2.47900       -1.68500
C          4.08600       -2.87900       -2.86200
C          4.34800       -4.36800       -2.96800
C          5.79300       -4.49200       -2.50000
C          5.95200       -3.42200       -1.37900
C          5.80300       -4.04200        0.04100
C          6.87400       -5.02100        0.47200
C          8.07900       -4.56400        1.02800
C          9.07000       -5.46600        1.41500
C          8.86500       -6.83600        1.26000
C          7.66400       -7.30000        0.73100
C          6.67100       -6.40100        0.34500
C          7.32100       -2.69700       -1.54500
O          7.53700       -1.66800       -0.69200
O          8.17800       -3.01500       -2.35900
H          3.61300        2.39000        0.08700
H          4.21600        1.81900       -1.48500
H          4.92100        1.21400        0.00000
H          2.15100        0.76800        1.54100
H          3.39800       -0.47900        1.50500
H          1.79300       -0.85500        0.91200
H          1.26900        1.80000       -0.61100
H          0.87900        0.16500       -1.18200
H          1.86600        1.22200       -2.18100
H          4.51000       -2.34300       -3.71800
H          3.01900       -2.64500       -2.78900
H          4.20100       -4.75200       -3.98200
H          3.68700       -4.92200       -2.29200
H          6.44500       -4.29000       -3.35800
H          6.01500       -5.51100       -2.17600
H          4.82100       -4.53000        0.12300
H          5.77700       -3.26400        0.81200
H          8.26400       -3.50100        1.16900
H         10.00400       -5.10000        1.83300
H          9.64200       -7.53700        1.55200
H          7.50200       -8.37000        0.61600
H          5.73800       -6.78700       -0.05900
H          6.75600       -1.44300       -0.13100
