16
7085-85-0.pdb
C          2.66100        2.14300        0.28700
C          2.71500        0.62600        0.24200
O          3.19600        0.16400        1.51300
C          4.54300        0.06900        1.63700
O          5.34800        0.10200        0.71600
C          4.91900        0.02000        3.07200
C          6.22500        0.03500        3.39300
C          3.91800        0.03900        4.08000
N          3.12300        0.06800        4.92600
H          2.27000        2.55500       -0.64600
H          3.65600        2.56200        0.47000
H          2.02600        2.47400        1.11600
H          3.33500        0.26900       -0.58800
H          1.70900        0.21800        0.10100
H          6.99800        0.05100        2.63100
H          6.55500        0.05000        4.43000
