35
71084-08-7.pdb
C          2.31900       -0.63300       -0.00500
C          1.44900        0.60900        0.00400
C          0.02400        0.27900       -0.02100
C         -1.15400        0.04400       -0.02800
C         -2.59000       -0.22700       -0.00900
C         -2.88400       -1.48200        0.80100
C         -4.37900       -1.75700        0.81600
C         -4.67700       -3.00900        1.62400
C         -6.17300       -3.28000        1.63300
C         -6.47300       -4.53300        2.43900
C         -7.96800       -4.81100        2.45300
C         -8.26800       -6.06100        3.26000
O         -9.66500       -6.30800        3.26400
H          3.37600       -0.34700       -0.00300
H          2.13200       -1.24500       -0.89400
H          2.13300       -1.25600        0.87700
H          1.68900        1.23100       -0.86500
H          1.66700        1.19800        0.90100
H         -2.96000       -0.35000       -1.03400
H         -3.12100        0.62700        0.42800
H         -2.51800       -1.36500        1.83000
H         -2.35200       -2.34200        0.37400
H         -4.74500       -1.88300       -0.21100
H         -4.91100       -0.90100        1.24800
H         -4.31400       -2.88500        2.65100
H         -4.14500       -3.86600        1.19300
H         -6.53400       -3.40300        0.60500
H         -6.70300       -2.42300        2.06500
H         -6.10700       -4.40900        3.46600
H         -5.93800       -5.38800        2.00700
H         -8.34300       -4.93000        1.42900
H         -8.50900       -3.95500        2.87500
H         -7.92600       -5.95200        4.29400
H         -7.76700       -6.93000        2.82200
H        -10.09500       -5.53400        3.66400
