37
7116-96-3.pdb
C          4.63400        5.12200       -2.26500
C          4.21000        3.75500       -1.75700
C          4.82800        2.62600       -2.58100
C          4.39700        1.26200       -2.03400
C          4.96900        0.08000       -2.82400
C          6.47600        0.01200       -2.83500
C          7.20700       -0.07900       -1.64600
C          8.60600       -0.12200       -1.67500
C          9.31900       -0.10300       -2.88600
C          8.56500       -0.03100       -4.07000
C          7.16800        0.03300       -4.04800
C         10.80200       -0.16600       -2.91900
C         11.53000       -0.87800       -1.94800
C         12.92700       -0.94300       -1.98300
C         13.63000       -0.30700       -3.00000
C         12.93800        0.40200       -3.97500
C         11.54300        0.47700       -3.92900
H          4.18100        5.90800       -1.65300
H          4.31700        5.27200       -3.30200
H          5.72100        5.23900       -2.21700
H          3.11700        3.68100       -1.78900
H          4.51200        3.65400       -0.70800
H          5.92100        2.72000       -2.55400
H          4.52200        2.71800       -3.63000
H          3.30200        1.19500       -2.06400
H          4.68400        1.18400       -0.97800
H          4.58600        0.12200       -3.85200
H          4.58900       -0.85700       -2.39700
H          6.69700       -0.10500       -0.68600
H          9.13100       -0.15800       -0.72400
H          9.05500       -0.03500       -5.04000
H          6.63000        0.10100       -4.99000
H         11.01600       -1.41000       -1.15100
H         13.46100       -1.49700       -1.21500
H         14.71500       -0.36300       -3.03200
H         13.48000        0.90000       -4.77500
H         11.03900        1.05900       -4.69700
