20
713-52-0.pdb
C          1.36200        1.60500        2.18000
O          2.77500        1.44100        2.11700
C          3.23200        0.88100        0.96900
O          2.54700        0.53900        0.01700
C          4.71400        0.80600        0.99300
C          5.39900        0.80000       -0.22300
C          6.78800        0.75600       -0.21700
C          7.47900        0.70400        1.01300
C          6.84200        0.70200        2.27900
O          7.43600        0.68100        3.40900
C          5.43200        0.74500        2.20400
N          8.93900        0.67700        0.91100
O          9.48300        1.68900        0.43000
O          9.52300       -0.40000        1.12000
H          1.13100        2.21200        3.05900
H          0.87900        0.63000        2.29400
H          0.98200        2.12700        1.29500
H          4.85800        0.85000       -1.16400
H          7.33800        0.77100       -1.15400
H          4.88100        0.73200        3.14600
