36
713-95-1.pdb
C          1.06200       -1.92000        4.65500
C          2.57600       -1.94500        4.58300
C          3.04700       -2.12000        3.14000
C          4.56500       -2.14600        3.08000
C          5.07700       -2.34100        1.65100
C          6.60800       -2.36000        1.60100
C          7.17800       -3.52800        2.41200
C          8.70700       -3.57400        2.42600
C          9.25200       -4.71400        3.27800
C          9.00400       -4.49000        4.76800
C          8.73400       -3.03500        5.13400
C          9.38300       -2.05300        4.20200
O          9.91500       -1.01900        4.60100
O          9.28000       -2.32800        2.87500
H          0.73300       -1.78500        5.68900
H          0.64000       -2.85800        4.27900
H          0.66000       -1.09700        4.05600
H          2.95800       -2.76300        5.20600
H          2.97800       -1.01200        4.99500
H          2.66500       -1.30300        2.51800
H          2.64900       -3.05800        2.73400
H          4.90200       -2.96300        3.72500
H          4.97700       -1.21700        3.49300
H          4.71000       -1.52700        1.01500
H          4.68300       -3.27600        1.23600
H          6.98900       -1.40500        1.98100
H          6.93300       -2.44600        0.55800
H          6.77900       -4.47400        2.02900
H          6.81700       -3.44600        3.43300
H          9.05100       -3.71700        1.39500
H         10.33800       -4.76500        3.12500
H          8.84300       -5.67900        2.96200
H          9.87300       -4.85600        5.32800
H          8.15700       -5.10200        5.09700
H          9.08200       -2.85100        6.15700
H          7.66200       -2.81900        5.15000
