22
7133-37-1.pdb
C          1.11500       -0.18300        0.19900
S          2.89700        0.12400        0.13300
C          3.34800       -0.84800       -1.36000
C          3.05400       -2.34200       -1.17100
C          3.54600       -3.16800       -2.35800
C          5.02800       -2.93200       -2.63200
C          5.32500       -1.45200       -2.83300
C          4.83800       -0.61300       -1.65200
H          0.68500        0.40400        1.01600
H          0.90600       -1.23500        0.40100
H          0.63600        0.12100       -0.73600
H          2.76000       -0.46000       -2.20200
H          1.97900       -2.51700       -1.06400
H          3.53700       -2.71200       -0.25800
H          2.96300       -2.90700       -3.25100
H          3.37100       -4.23100       -2.16200
H          5.33100       -3.49600       -3.52300
H          5.62000       -3.31600       -1.79300
H          4.84200       -1.10200       -3.75400
H          6.40300       -1.30900       -2.96500
H          5.02100        0.44600       -1.87200
H          5.44300       -0.86900       -0.77300
