22
7149-49-7.pdb
O          1.07600       -0.14600        0.11700
C          2.27100       -0.08000       -0.12000
C          3.01300        1.19600       -0.10500
C          4.14000        1.26200       -0.93900
C          4.87500        2.45000       -1.05600
C          5.99500        2.53600       -1.89700
C          6.71800        3.72600       -1.99700
C          6.32800        4.84200       -1.26400
C          5.21200        4.77500       -0.43100
C          4.47600        3.58700       -0.31500
C          3.35900        3.50400        0.52900
C          2.62800        2.31100        0.64800
C          1.50500        2.28500        1.60900
O          1.25000        3.25100        2.32500
H          2.84300       -0.97900       -0.40500
H          4.43300        0.39100       -1.52400
H          6.31900        1.67700       -2.48100
H          7.58700        3.78000       -2.64800
H          6.89400        5.76800       -1.33700
H          4.92200        5.65900        0.13400
H          3.05100        4.37800        1.10500
H          0.90600        1.37000        1.70200
