26
7152-04-7.pdb
C          0.95400        0.16000       -0.02100
C          2.41200       -0.12600       -0.26700
O          2.78400       -1.26200       -0.54700
N          3.20700        0.99900       -0.13200
C          4.60300        1.06300       -0.33000
C          5.33300        0.04800       -0.94800
C          6.72300        0.13500       -1.06800
C          7.41800        1.25100       -0.58700
C          8.88900        1.33300       -0.62500
C          9.64100        0.73900       -1.56700
C         11.11100        0.78100       -1.66500
O         11.75500        1.01800       -0.50800
O         11.69000        0.56900       -2.71900
C          6.68200        2.28200        0.00900
C          5.28600        2.19600        0.12300
H          0.41300       -0.78600        0.08200
H          0.54400        0.71400       -0.86800
H          0.82400        0.73200        0.90200
H          2.76600        1.83200        0.23900
H          4.84900       -0.83500       -1.35500
H          7.24300       -0.70000       -1.52800
H          9.33500        1.93600        0.16000
H          9.19000        0.20700       -2.40000
H         11.19200        0.97800        0.28500
H          7.18400        3.16600        0.39700
H          4.75200        3.01500        0.59900
