38
71581-92-5.pdb
O          2.56900       -0.22800        1.06400
C          2.48100       -0.23800       -0.35700
C          2.98700        1.09000       -0.92700
C          4.50300        1.26200       -0.73200
C          5.00600        2.54900       -1.38900
C          4.21900        3.78100       -0.95100
C          2.71400        3.57200       -1.11900
C          2.21300        2.31500       -0.39500
N          2.37100        2.47100        1.09800
C          1.52900        3.53800        1.71800
C          1.69700        3.68500        3.20200
C          2.70600        4.50500        3.73300
C          2.78700        4.72800        5.11000
C          1.87000        4.12400        5.96900
C          0.88000        3.29000        5.45500
C          0.79500        3.06500        4.08000
H          2.57300       -1.17400        1.33200
H          1.43200       -0.39600       -0.62600
H          3.06700       -1.07400       -0.75600
H          2.80400        1.03800       -2.00800
H          5.03100        0.40900       -1.17700
H          4.76300        1.26600        0.33300
H          4.92700        2.44600       -2.47800
H          6.06900        2.68900       -1.16100
H          4.53400        4.64500       -1.54700
H          4.45500        4.02100        0.09200
H          2.48900        3.46600       -2.18900
H          2.17300        4.46800       -0.79900
H          1.14000        2.17900       -0.57000
H          3.34900        2.62100        1.36700
H          2.15300        1.55200        1.53000
H          0.48600        3.32200        1.46100
H          1.80000        4.48900        1.25100
H          3.41200        5.02600        3.08700
H          3.54800        5.39000        5.51800
H          1.91900        4.31500        7.03900
H          0.15800        2.83300        6.13000
H         -0.01000        2.43600        3.70700
