25
716-79-0.pdb
N         -1.48000       -1.11800       -0.03800
C         -0.17000       -0.71900       -0.03500
C          1.03200       -1.43000       -0.01600
C          2.20700       -0.67100       -0.01200
C          2.17100        0.72600       -0.03000
C          0.94900        1.41200       -0.04800
C         -0.23900        0.66700       -0.04400
N         -1.54500        1.09200       -0.03300
C         -2.28600       -0.00200       -0.03000
C         -3.74700       -0.06200        0.04000
C         -4.47300       -1.13700       -0.49400
C         -5.86500       -1.18100       -0.37900
C         -6.54600       -0.15500        0.27200
C         -5.83900        0.92600        0.79300
C         -4.44900        0.97400        0.67200
H         -1.80400       -2.07200        0.00100
H          1.06100       -2.51400       -0.00100
H          3.17000       -1.17900        0.00800
H          3.10000        1.29100       -0.02600
H          0.91200        2.49500       -0.05700
H         -3.97200       -1.94100       -1.02600
H         -6.41900       -2.01700       -0.80000
H         -7.62800       -0.19200        0.36600
H         -6.36600        1.73300        1.29600
H         -3.90400        1.82400        1.08300
