19
7164-98-9.pdb
C          1.38500       -0.24400        0.05300
C          0.49100       -1.31000        0.12000
C         -0.88600       -1.07900        0.06100
C         -1.38000        0.22700       -0.07800
C         -0.47100        1.29400       -0.13500
C          0.90500        1.05600       -0.06800
N         -2.78100        0.46600       -0.17100
C         -3.80000       -0.46100       -0.10200
C         -4.97100        0.24300       -0.24500
N         -4.72100        1.57300       -0.40600
C         -3.41100        1.67900       -0.36200
H          2.45500       -0.42600        0.09600
H          0.86700       -2.32600        0.21500
H         -1.54000       -1.94400        0.11800
H         -0.79000        2.32800       -0.22800
H          1.60000        1.89100       -0.11300
H         -3.63300       -1.51700        0.04200
H         -5.98300       -0.14400       -0.24100
H         -2.87900        2.61300       -0.47300
