27
717-27-1.pdb
C          1.39900       -0.81100       -1.35400
C          2.71800       -0.29800       -1.85300
O          3.22800       -0.63400       -2.91400
O          3.26600        0.54700       -0.89200
C          4.65800        0.75600       -0.92300
C          5.53600       -0.30700       -1.11700
C          6.90300       -0.08900       -0.99400
C          7.39000        1.17600       -0.64500
O          8.78600        1.17700       -0.41200
C          9.69900        2.11000       -0.90300
C         11.08500        1.57900       -0.65700
O          9.44700        3.14600       -1.49600
C          6.51900        2.24600       -0.39800
C          6.97100        3.60500        0.04500
C          5.13600        2.02300       -0.57500
H          0.92200       -1.40800       -2.13700
H          0.73800        0.01900       -1.09700
H          1.56900       -1.45200       -0.48500
H          5.17600       -1.30500       -1.34100
H          7.59000       -0.91700       -1.13700
H         11.08600        0.87700        0.18400
H         11.75900        2.40100       -0.40600
H         11.43500        1.06300       -1.55600
H          7.87400        3.54500        0.65800
H          6.20700        4.08200        0.66900
H          7.15400        4.25000       -0.82100
H          4.42600        2.82800       -0.39600
