20
71830-08-5.pdb
N          1.76400        0.03500        0.58100
C          0.76000        0.10000       -0.51200
C         -0.08400       -1.16800       -0.49300
C         -1.23400       -0.82000        0.43300
C         -1.53800        0.63100        0.07100
C         -0.17700        1.26700       -0.23300
C         -2.16900        1.35300        1.25900
O         -1.43700        1.36600        2.28800
O         -3.29600        1.86500        1.02800
H          2.40900       -0.75300        0.46700
H          1.28100       -0.05100        1.49100
H          2.30700        0.90500        0.62700
H          1.31900        0.21800       -1.44500
H          0.46000       -2.05700       -0.15800
H         -0.47500       -1.37000       -1.49600
H         -0.92900       -0.93800        1.48100
H         -2.10000       -1.47000        0.27500
H         -2.17400        0.67300       -0.82300
H          0.19700        1.90300        0.58000
H         -0.25900        1.92100       -1.10800
