20
71830-07-4.pdb
N          1.02200        0.28700       -1.93500
C          0.80600        0.10400       -0.48300
C          0.03600       -1.19700       -0.24300
C         -1.28900       -0.78400        0.40500
C         -1.50000        0.67200        0.00600
C         -0.08000        1.23500        0.04800
C         -2.12400        0.77600       -1.39900
O         -1.31300        0.53500       -2.35000
O         -3.32900        1.10700       -1.43900
H          1.48300       -0.48800       -2.40900
H          1.43600        1.18300       -2.18700
H          0.05200        0.33900       -2.37100
H          1.79900        0.10100       -0.02400
H          0.59100       -1.87300        0.41800
H         -0.15400       -1.74800       -1.17400
H         -1.18800       -0.85400        1.49500
H         -2.10900       -1.44300        0.10300
H         -2.14700        1.19000        0.72300
H          0.19100        1.44400        1.09000
H          0.02400        2.16800       -0.51600
