19
7189-69-7.pdb
O          1.12100       -0.08300       -0.23900
S          2.56900       -0.05000       -0.17800
O          3.30300       -0.00100        1.07100
N          3.09700       -1.43200       -0.96300
C          2.37500       -2.19800       -1.83400
C          3.23100       -3.22700       -2.15900
N          4.46000       -3.04500       -1.56800
C          4.34700       -1.94400       -0.85100
N          3.02900        1.31600       -1.03400
C          4.19400        2.00900       -0.88600
C          4.09700        3.02700       -1.80700
N          2.93700        2.91400       -2.54000
C          2.31200        1.86300       -2.04900
H          1.34600       -1.99300       -2.09800
H          3.03200       -4.09000       -2.78500
H          5.12500       -1.51700       -0.23200
H          4.94100        1.76700       -0.14000
H          4.79500        3.83700       -1.98500
H          1.34800        1.49500       -2.37900
