44
71989-31-6.pdb
O          5.80100        1.58500       -0.43100
C          6.40500        0.56800        0.22500
O          7.61000        0.36600        0.14400
C          5.44100       -0.39000        0.92800
C          5.17600       -1.56100       -0.02500
C          3.91300       -2.21000        0.52300
C          3.15900       -1.07100        1.19600
N          4.07700        0.05900        1.21800
C          3.82500        1.15900        2.01100
O          4.66700        2.00000        2.28600
O          2.51600        1.24000        2.35200
C          2.09500        2.41400        3.07500
C          1.91200        3.63700        2.16500
C          0.82300        3.45900        1.10500
C          0.75100        2.52400        0.08000
C         -0.33600        2.57700       -0.78900
C         -1.33400        3.55400       -0.63700
C         -1.25100        4.50200        0.38600
C         -0.17100        4.45100        1.25200
C          0.17200        5.29900        2.37200
C         -0.48900        6.39600        2.90200
C          0.07300        7.04400        4.00500
C          1.28100        6.59600        4.56100
C          1.95200        5.49200        4.02600
C          1.38800        4.84800        2.93500
H          4.84400        1.60800       -0.23800
H          5.89000       -0.71900        1.87300
H          6.01600       -2.25800       -0.09600
H          4.97300       -1.18900       -1.04000
H          4.17400       -2.98100        1.25700
H          3.31700       -2.68700       -0.26100
H          2.90000       -1.34700        2.22800
H          2.24300       -0.79300        0.66900
H          2.81100        2.61800        3.88100
H          1.14900        2.15200        3.56300
H          2.84200        3.90800        1.65100
H          1.52100        1.77300       -0.05200
H         -0.41800        1.85500       -1.60000
H         -2.17600        3.57700       -1.32600
H         -2.02200        5.25800        0.49100
H         -1.42100        6.75200        2.47500
H         -0.42800        7.90800        4.43600
H          1.70200        7.11900        5.41800
H          2.89100        5.16000        4.45700
