17
71989-93-0.pdb
O         -2.73200        0.18500        0.01200
C         -1.36900        0.10800        0.00200
C         -0.58300        1.25400       -0.02500
C          0.81700        1.14300       -0.03900
O          1.53800        2.30300       -0.08200
C          1.45600       -0.10700       -0.02200
C          0.61300       -1.24300        0.00500
O          1.11600       -2.52400        0.02200
C         -0.78000       -1.14500        0.01600
C          2.96500       -0.29200       -0.02300
O          3.74100        0.71100       -0.02400
O          3.36100       -1.51100       -0.01600
H         -2.98000        1.12200       -0.00600
H         -1.04700        2.23300       -0.04400
H          0.96600        3.06800        0.05200
H          2.10900       -2.41400        0.01000
H         -1.38600       -2.04400        0.03500
