25
72-14-0.pdb
N          2.26200       -0.00600       -0.19500
C          0.87300        0.00500       -0.02800
C          0.17600        1.21700       -0.04600
C         -1.22000        1.23800       -0.00600
C         -1.92600        0.03300       -0.00500
C         -1.24700       -1.18600       -0.03100
C          0.15000       -1.19100       -0.07000
S         -3.69600        0.06300        0.11200
O         -4.11700       -1.21000        0.65700
O         -4.06700        1.30700        0.75400
N         -4.14800        0.04000       -1.52000
C         -4.89500        1.18500       -1.86900
S         -4.19800        2.67100       -2.34100
C         -5.77600        3.30600       -2.56900
C         -6.71000        2.33100       -2.28600
N         -6.19700        1.09100       -1.95300
H          2.72400        0.82700        0.15400
H          2.70800       -0.85500        0.13700
H          0.71700        2.15900       -0.07800
H         -1.74100        2.19200        0.02200
H         -1.78900       -2.12900       -0.02600
H          0.67200       -2.14300       -0.12400
H         -4.74800       -0.78000       -1.62400
H         -5.93900        4.32900       -2.87800
H         -7.78400        2.46800       -2.32200
