19
72-18-4.pdb
C          0.99400       -0.06700        0.05000
C          2.52300       -0.06200        0.14100
C          2.96700        0.78100        1.34100
C          3.15400       -1.47200        0.17800
N          2.71400       -2.32000        1.32600
C          2.91200       -2.26300       -1.12500
O          2.77300       -3.59000       -0.86300
O          2.87900       -1.79300       -2.25100
H          0.61400        0.95800       -0.02600
H          0.53100       -0.52100        0.93100
H          0.65100       -0.60900       -0.83700
H          2.89500        0.44300       -0.76100
H          2.57300        0.38700        2.28400
H          2.61300        1.81200        1.23900
H          4.06000        0.81200        1.41300
H          4.24400       -1.37600        0.25600
H          1.69100       -2.28900        1.38300
H          3.02600       -1.86800        2.19000
H          2.84100       -3.67700        0.12100
