27
720-73-0.pdb
C          2.52500       -0.00900       -0.00900
C          1.02700        0.00400       -0.00400
C          0.31700        1.20500        0.00500
C         -1.08200        1.20200        0.00700
C         -1.82000        0.00500       -0.01600
C         -1.08500       -1.19400       -0.02600
C          0.31500       -1.19700       -0.01300
C         -3.30400        0.01000       -0.03200
C         -4.02800        1.03500       -0.66700
C         -5.42800        1.05500       -0.66700
C         -6.16500        0.04000       -0.04700
C         -5.45500       -0.99400        0.57600
C         -4.05400       -1.00500        0.59000
C         -7.68100        0.06100       -0.04800
O         -8.24600        1.04500       -0.62200
O         -8.27500       -0.90800        0.52500
H          2.93600        1.00600        0.00900
H          2.89300       -0.50500       -0.91300
H          2.90200       -0.53900        0.87200
H          0.84000        2.15900        0.01300
H         -1.59600        2.16100        0.03600
H         -1.60000       -2.15300       -0.05800
H          0.84100       -2.14900       -0.01700
H         -3.51500        1.84100       -1.18600
H         -5.95900        1.86900       -1.16000
H         -6.00800       -1.79700        1.06300
H         -3.56300       -1.82200        1.11100
