30
720-44-5.pdb
C          1.16800       -0.68700       -0.21800
O          2.35200        0.09200       -0.10100
C          2.97600        0.08800        1.11700
C          2.54000       -0.58300        2.25800
C          3.28100       -0.51000        3.44400
C          4.46500        0.24200        3.51100
C          4.88500        0.92300        2.35900
C          4.14700        0.84100        1.17400
C          5.25400        0.31100        4.80800
O          6.55400       -0.25500        4.59900
C          5.39300        1.70200        5.41300
C          4.37200        2.66100        5.29500
C          4.51200        3.93400        5.84800
C          5.66600        4.26300        6.55700
C          6.67000        3.31600        6.72400
C          6.53300        2.04400        6.16400
H          0.80200       -0.58700       -1.24400
H          0.38600       -0.31800        0.45300
H          1.37500       -1.74800       -0.04000
H          1.62900       -1.17300        2.26300
H          2.91900       -1.04100        4.32200
H          5.78600        1.53500        2.37900
H          4.49000        1.37500        0.29000
H          4.77000       -0.31500        5.56600
H          6.74600       -0.21100        3.64900
H          3.45500        2.43100        4.75300
H          3.72200        4.66900        5.72500
H          5.77800        5.25600        6.98400
H          7.56500        3.56200        7.28900
H          7.32800        1.31500        6.31200
