26
7200-25-1.pdb
N          2.84700       -1.43000       -0.10400
C          2.36200       -0.03100        0.10400
C          2.87600        0.93000       -0.97400
C          2.41200        0.58100       -2.39400
C          2.95500        1.57600       -3.41300
N          2.48800        1.17700       -4.73600
C          2.80400        1.91900       -5.72700
N          3.56700        3.03400       -5.73400
N          2.30600        1.64700       -6.95000
C          0.82500       -0.02400        0.16700
O          0.32000       -1.27900        0.03300
O          0.13100        0.96900        0.31600
H          3.84200       -1.44200        0.14300
H          2.85200       -1.64000       -1.10600
H          2.71200        0.29000        1.09300
H          3.97300        0.94900       -0.94400
H          2.54300        1.94800       -0.73300
H          1.31600        0.56900       -2.44300
H          2.74900       -0.42100       -2.68000
H          4.05000        1.56800       -3.37300
H          2.59400        2.58200       -3.16500
H          4.13200        3.19600       -4.91200
H          4.03900        3.26400       -6.59400
H          1.86000        0.73800       -7.00600
H          2.83100        1.91000       -7.76700
H          1.10600       -1.87700       -0.00900
