27
7207-49-0.pdb
C          5.05300        2.25200       -1.93300
C          4.53400        1.14300       -1.02900
C          5.03900       -0.21600       -1.50800
C          4.57700       -1.36400       -0.60700
C          5.07500       -2.73000       -1.09300
C          6.60000       -2.83800       -1.09200
C          7.05600       -4.20400       -1.55800
C          7.27400       -4.40800       -3.03900
N          7.23900       -5.12600       -0.66300
O          7.67600       -6.31900       -1.24800
H          4.70400        3.22800       -1.58300
H          4.70600        2.11300       -2.96200
H          6.14800        2.26700       -1.94300
H          3.43800        1.15900       -1.02200
H          4.87200        1.32700       -0.00300
H          6.13200       -0.17900       -1.53700
H          4.69300       -0.39700       -2.53300
H          3.48200       -1.38000       -0.57500
H          4.92200       -1.19200        0.42000
H          4.68300       -2.92900       -2.09800
H          4.65500       -3.50800       -0.44200
H          6.98800       -2.66000       -0.08400
H          7.05300       -2.09600       -1.75600
H          7.00800       -3.50800       -3.59900
H          6.65500       -5.23600       -3.39700
H          8.32900       -4.63200       -3.22200
H          7.81000       -6.89400       -0.47200
