36
721-50-6.pdb
C          0.94800        0.08400       -0.19100
C          2.46700        0.02200       -0.10400
C          2.96100        0.48500        1.26800
N          4.42500        0.37800        1.35300
C          4.92800        0.91000        2.65200
C          4.45100        0.10500        3.86100
C          6.46800        0.88200        2.66900
O          7.11500        1.80500        3.15600
N          6.99700       -0.27400        2.12000
C          8.37000       -0.58600        2.10200
C          9.17400       -0.31200        3.21600
C         10.52700       -0.65300        3.21800
C         11.08500       -1.26800        2.10200
C         10.29600       -1.53700        0.98600
C          8.93100       -1.20300        0.97100
C          8.12700       -1.45500       -0.27300
H          0.60700       -0.26900       -1.17000
H          0.58800        1.10900       -0.05600
H          0.48300       -0.54500        0.57600
H          2.89800        0.64700       -0.89400
H          2.79100       -1.01000       -0.29000
H          2.48900       -0.14200        2.03200
H          2.64700        1.52200        1.43700
H          4.82200        0.96100        0.61100
H          4.62800        1.96100        2.75100
H          4.66400       -0.96200        3.74200
H          3.37800        0.22800        4.03200
H          4.96600        0.43900        4.77000
H          6.37100       -0.74600        1.47500
H          8.75100        0.14200        4.10800
H         11.13900       -0.43700        4.09000
H         12.14500       -1.51900        2.09700
H         10.75900       -1.99200        0.11400
H          8.76900       -1.72400       -1.11900
H          7.58600       -0.54700       -0.56400
H          7.41300       -2.26800       -0.11000
