23
7210-77-7.pdb
C          1.45100       -0.88800        0.70200
C          2.37800       -0.43900       -0.41500
O          3.23600       -1.53900       -0.74300
C          4.36300       -1.64700        0.02000
O          4.80800       -0.73600        0.71000
C          4.88700       -2.99500       -0.01000
S          4.22300       -4.24100       -0.98300
C          5.32800       -5.36200       -0.30900
C          5.29900       -6.79500       -0.71200
N          6.17000       -4.86400        0.57000
C          5.92800       -3.51000        0.74900
C          6.76300       -2.77100        1.73600
H          0.74900       -0.09600        0.97700
H          2.02400       -1.17600        1.59100
H          0.88800       -1.77300        0.39300
H          2.94300        0.45800       -0.13600
H          1.79700       -0.19300       -1.30900
H          4.55200       -7.00000       -1.48300
H          5.07800       -7.42200        0.15700
H          6.27800       -7.08800       -1.10400
H          7.49300       -3.43800        2.20700
H          6.13600       -2.34600        2.52700
H          7.31100       -1.96100        1.24600
