17
7217-59-6.pdb
C          3.18100       -0.74400        0.99800
O          2.46400        0.28400        0.32300
C          3.17800        0.98800       -0.61500
C          4.20700        0.41200       -1.37200
C          4.90900        1.17300       -2.30700
C          4.57900        2.51000       -2.50600
C          3.53300        3.08500       -1.78100
C          2.81900        2.33100       -0.83900
S          1.49100        3.11500        0.07300
H          2.64000       -0.98300        1.91700
H          4.19000       -0.42100        1.28000
H          3.21800       -1.65000        0.38500
H          4.47200       -0.63400       -1.25800
H          5.71200        0.72000       -2.88200
H          5.13200        3.10500       -3.22800
H          3.29000        4.12900       -1.96000
H          1.47700        4.27400       -0.59800
