23
72198-83-5.pdb
C          2.52100        0.05200       -0.01000
C          1.01600       -0.00900        0.01000
C          0.31500        1.22000        0.01000
C         -1.08700        1.26300        0.01000
C         -1.81000        0.06800        0.00100
C         -1.14100       -1.16000        0.00700
C          0.26600       -1.20900        0.01200
N          0.89700       -2.55100        0.00600
O          2.13100       -2.63400       -0.00000
O          0.14200       -3.53700        0.01000
C         -1.83900        2.54800       -0.04800
O         -2.94700        2.59400       -0.57800
N         -1.22900        3.65700        0.53000
N         -1.93600        4.88000        0.57000
H          2.88100        1.08700       -0.00600
H          2.91300       -0.41500       -0.91800
H          2.93800       -0.42800        0.88100
H          0.88200        2.14900       -0.03100
H         -2.89900        0.08700       -0.01800
H         -1.74000       -2.07000       -0.00100
H         -0.44200        3.53900        1.16500
H         -2.85100        4.70800        0.12600
H         -1.47400        5.53800       -0.06300
