28
723-46-6.pdb
C         -1.91200        0.88200       -4.22600
C         -2.35300        0.17000       -3.01200
O         -3.69700        0.08700       -2.82400
N         -3.95600       -0.61100       -1.66100
C         -2.76500       -0.94300       -1.16400
N         -2.66000       -1.61000        0.04500
S         -2.43800       -3.27300        0.05700
O         -1.76000       -3.69000       -1.15000
O         -1.88100       -3.58500        1.36300
C         -4.10600       -3.86900        0.01800
C         -4.71800       -4.10800       -1.21400
C         -6.03700       -4.56400       -1.24900
C         -6.73300       -4.83500       -0.06700
N         -8.09500       -5.15300       -0.11300
C         -6.11700       -4.55500        1.15800
C         -4.79700       -4.09800        1.20900
C         -1.71300       -0.46600       -1.97400
H         -2.76700        1.24900       -4.80400
H         -1.33000        0.21900       -4.87300
H         -1.29100        1.74300       -3.96300
H         -2.16200       -1.16000        0.80700
H         -4.19200       -3.91200       -2.14600
H         -6.52100       -4.70000       -2.21300
H         -8.37900       -5.61900       -0.96900
H         -8.43900       -5.62500        0.71600
H         -6.66600       -4.68800        2.08700
H         -4.33100       -3.90400        2.17200
H         -0.64800       -0.58300       -1.83800
