26
723-89-7.pdb
O          2.96200       -0.69500       -0.10800
C          1.75800       -0.55500       -0.07800
N          0.72600       -1.49100       -0.06400
C          0.90100       -2.88700       -0.08400
C          0.16300       -3.71700        0.77300
C          0.33000       -5.10300        0.74400
C          1.23400       -5.67400       -0.14800
C          1.99100       -4.85900       -0.98700
C          1.84200       -3.47000       -0.93900
C         -0.53400       -0.85600       -0.01800
C         -1.80700       -1.39800       -0.11100
C         -2.90800       -0.53300       -0.06500
C         -2.73100        0.85700        0.04700
C         -1.45000        1.40700        0.09500
C         -0.38400        0.52700        0.05300
C          1.04800        0.81700        0.02300
O          1.56500        1.90900        0.06100
H         -0.51500       -3.29400        1.50900
H         -0.23800       -5.73200        1.42400
H          1.35800       -6.75300       -0.17800
H          2.70100       -5.30400       -1.68000
H          2.44300       -2.85600       -1.60700
H         -1.97600       -2.46100       -0.24700
H         -3.91400       -0.94200       -0.12900
H         -3.60300        1.50900        0.07900
H         -1.29300        2.48100        0.15300
