20
7250-53-5.pdb
O          1.16800       -0.16600       -0.44900
C          2.48800       -0.01900       -0.20100
O          3.02100        1.07600       -0.15800
C          3.20800       -1.30800        0.01700
C          2.83100       -2.41900       -0.75700
C          3.48900       -3.63100       -0.59900
C          4.54300       -3.72700        0.30600
C          4.96500       -2.64600        1.06500
N          6.00400       -2.84000        1.88900
C          6.44500       -1.80400        2.63100
C          5.86800       -0.55500        2.60500
C          4.78400       -0.36000        1.75800
C          4.29600       -1.40500        0.93700
H          0.80600       -1.06200       -0.32600
H          2.05000       -2.34800       -1.51100
H          3.20100       -4.49800       -1.19000
H          5.06600       -4.67600        0.41600
H          7.29800       -2.01800        3.26700
H          6.25200        0.25100        3.22100
H          4.33100        0.62800        1.73700
