32
72597-34-3.pdb
C          0.85300       -0.00500        0.12900
C          2.39500       -0.00800        0.11500
C          2.84000       -0.00600        1.59400
C          3.00400       -1.15800       -0.73500
C          2.53600       -0.81500       -2.16900
C          2.57900        0.73000       -2.19500
C          3.06000        1.10200       -0.77000
C          2.82500        2.53200       -0.31800
S          3.57200        3.85500       -1.28500
N          5.20800        3.58600       -1.21900
O          3.17100        3.69100       -2.66700
O          3.34600        5.08000       -0.56600
C          4.50300        0.58800       -0.71000
O          5.51900        1.25500       -0.68400
C          4.51900       -0.91700       -0.68800
H          0.47800       -0.87800        0.67800
H          0.39300       -0.03700       -0.86000
H          0.47000        0.89100        0.62900
H          2.45900       -0.89500        2.10900
H          2.44400        0.87300        2.11700
H          3.92400        0.00800        1.73800
H          2.73200       -2.17000       -0.42500
H          1.52300       -1.18200       -2.35900
H          3.18700       -1.24700       -2.93700
H          1.58600        1.13700       -2.41500
H          3.26800        1.07400       -2.97400
H          3.15500        2.69200        0.71100
H          1.74900        2.75700       -0.35000
H          5.49600        2.67000       -1.58700
H          5.59300        3.68200       -0.27900
H          4.98500       -1.26400        0.23800
H          5.05600       -1.30000       -1.56000
