36
72599-27-0.pdb
C          3.86300       -2.94000       -0.18100
C          3.87400       -1.41800       -0.30600
C          4.52900       -0.84900        0.94500
C          4.62600        0.66300        1.04600
N          5.01600        1.18600        2.38800
C          5.01900        2.66400        2.26100
C          5.30100        3.40900        3.56500
O          5.24700        4.82000        3.33200
C          6.66700        2.98000        4.09200
O          6.95600        3.64300        5.33000
C          6.69200        1.46000        4.27400
O          7.98800        1.05000        4.74900
C          6.29500        0.66600        2.97700
C          6.29000       -0.83400        3.44500
O          7.59900       -1.30400        3.77900
H          3.50000       -3.40800       -1.09800
H          3.21500       -3.25400        0.64800
H          4.87000       -3.32200        0.02200
H          2.85600       -1.04300       -0.42700
H          4.45000       -1.12500       -1.19600
H          5.55400       -1.24200        0.92100
H          3.98900       -1.23100        1.82000
H          3.63400        1.06300        0.80200
H          5.31800        1.03000        0.27600
H          4.04500        3.01400        1.89100
H          5.75300        2.98400        1.50600
H          4.52000        3.19100        4.30400
H          6.13800        5.12800        3.09000
H          7.46200        3.29300        3.40700
H          6.26700        3.40500        5.97000
H          5.99400        1.19800        5.08000
H          8.66300        1.53800        4.24100
H          7.10700        0.79200        2.24600
H          5.63800       -0.97200        4.31300
H          5.95500       -1.54500        2.70500
H          7.91600       -0.73600        4.51100
