28
72752-52-4.pdb
N          1.47600        1.63800        3.19900
C          1.27100        1.22500        2.13400
C          1.02200        0.65200        0.83800
C          1.70000       -0.54200        0.52700
C          1.56700       -1.12900       -0.72700
C          0.73400       -0.54200       -1.66900
C          0.05200        0.64000       -1.36300
C          0.18800        1.28300       -0.11700
N         -0.40200        2.52400        0.11400
C         -0.62000        3.44600       -1.00600
C         -0.48400        4.87900       -0.49000
C         -1.39500        5.14300        0.70900
C         -1.23200        4.07200        1.78900
C         -1.38000        2.66600        1.20200
H          2.35900       -1.00300        1.26100
H          2.11600       -2.03500       -0.97000
H          0.61900       -0.99300       -2.65200
H         -0.59500        1.06100       -2.12900
H         -1.61300        3.28700       -1.44400
H          0.12600        3.30400       -1.79800
H         -0.71000        5.58600       -1.29500
H          0.55800        5.05300       -0.19200
H         -2.43900        5.16500        0.37300
H         -1.17100        6.13000        1.12900
H         -1.97100        4.22900        2.58200
H         -0.23900        4.17400        2.24600
H         -2.39500        2.53000        0.80700
H         -1.25600        1.92300        1.99600
