22
7287-82-3.pdb
C          0.88200        0.21200       -0.05900
C          2.40000        0.04600       -0.09200
O          2.84600        0.72200       -1.27000
C          2.93800       -1.38000       -0.07800
C          2.07300       -2.49100       -0.10400
C          2.56500       -3.79800       -0.08900
C          3.93400       -4.02600       -0.05600
C          4.81200       -2.94700       -0.02700
C          4.33400       -1.62400       -0.03100
C          5.34200       -0.50400        0.00800
H          0.61800        1.27600       -0.05900
H          0.43800       -0.25100        0.82800
H          0.41700       -0.21600       -0.95500
H          2.80600        0.57800        0.77600
H          2.99900        0.04100       -1.94800
H          0.99300       -2.36400       -0.13200
H          1.87400       -4.63800       -0.10400
H          4.31800       -5.04300       -0.04400
H          5.88200       -3.14400        0.00300
H          6.36200       -0.88700        0.11800
H          5.15100        0.15400        0.86100
H          5.31300        0.07400       -0.92100
