34
729-43-1.pdb
C          0.89700       -0.04900       -0.05800
C          2.41500       -0.08500       -0.03900
N          3.11300       -1.16000        0.18900
N          2.36700       -2.30000        0.42800
C          3.06200       -3.39100        0.59100
C          4.57800       -3.44600        0.52000
C          2.32700       -4.67600        0.85100
C          0.92500       -4.67000        0.88100
C          0.21200       -5.85500        1.08000
C          0.89300       -7.05700        1.25400
C          2.28700       -7.07300        1.24300
C          3.00200       -5.88800        1.04600
C          3.14600        1.20700       -0.28400
C          2.46500        2.40800       -0.52000
C          3.17400        3.59700       -0.71800
C          4.56700        3.59600       -0.68400
C          5.25500        2.40600       -0.45800
C          4.54900        1.21700       -0.26000
H          0.44100       -1.02700        0.10500
H          0.55000        0.31400       -1.03000
H          0.54000        0.61800        0.73300
H          5.03400       -2.48300        0.28600
H          4.88000       -4.14700       -0.26400
H          4.97700       -3.77700        1.48300
H          0.37300       -3.74200        0.74400
H         -0.87500       -5.83700        1.09200
H          0.33900       -7.98100        1.39700
H          2.81900       -8.01000        1.38300
H          4.08600       -5.94300        1.04400
H          1.38100        2.45200       -0.55100
H          2.63700        4.52500       -0.89500
H          5.11600        4.52200       -0.83200
H          6.34200        2.40100       -0.43200
H          5.10500        0.29800       -0.08200
