27
73-22-3.pdb
N          0.76600       -0.49400       -0.54800
C          1.93300       -1.36500       -0.90900
C          3.03900       -1.40100        0.16000
C          2.60600       -1.94900        1.48900
C          2.64400       -3.28000        1.85500
N          2.16100       -3.39600        3.12700
C          1.80100       -2.16300        3.61300
C          1.25400       -1.81100        4.85200
C          0.97800       -0.46000        5.07900
C          1.24500        0.49700        4.10500
C          1.80000        0.13000        2.87300
C          2.08000       -1.22900        2.61300
C          1.41700       -2.77800       -1.23900
O          0.05800       -2.81900       -1.23400
O          2.11600       -3.74100       -1.51500
H          1.08500        0.47800       -0.60500
H          0.57800       -0.62600        0.45500
H          2.34500       -0.97100       -1.84600
H          3.43900       -0.38900        0.30100
H          3.87700       -2.00700       -0.21000
H          2.96700       -4.15800        1.30800
H          2.07200       -4.26400        3.63900
H          1.04900       -2.55600        5.61400
H          0.55000       -0.15600        6.03200
H          1.02200        1.54300        4.30500
H          2.00800        0.89300        2.12900
H         -0.23200       -1.89600       -1.02300
