33
73-31-4.pdb
C          0.96900        0.37900        0.00700
O          2.32900       -0.03500       -0.07600
C          2.98800        0.27200       -1.23800
C          2.61900        1.28400       -2.12200
C          3.36500        1.53900       -3.27700
C          4.49300        0.74600       -3.51500
N          5.38200        0.77900       -4.56000
C          6.33100       -0.19000       -4.40100
C          6.08700       -0.86500       -3.21900
C          6.88800       -2.01700       -2.67000
C          8.38700       -1.91100       -2.98900
N          9.17800       -3.01700       -2.47900
C          9.45400       -4.12500       -3.25000
C         10.41900       -5.09700       -2.62700
O          8.97600       -4.31200       -4.36500
C          4.90400       -0.27200       -2.65300
C          4.13300       -0.50100       -1.49100
H          0.56400        0.01000        0.95400
H          0.37700       -0.05900       -0.80500
H          0.87600        1.47000        0.01800
H          1.75400        1.91300       -1.93800
H          3.07400        2.32900       -3.96200
H          5.32800        1.41900       -5.34000
H          7.10400       -0.31800       -5.14900
H          6.48500       -2.95300       -3.07500
H          6.76200       -2.06700       -1.58100
H          8.80300       -0.99700       -2.55100
H          8.54500       -1.85500       -4.07200
H          9.60700       -2.92100       -1.56800
H         10.77200       -4.75400       -1.65100
H         11.28600       -5.20600       -3.28600
H          9.92600       -6.06500       -2.50400
H          4.41400       -1.28500       -0.79400
