24
7307-04-2.pdb
C          2.40400        1.45700        0.04800
C          3.63400        1.75700        0.86400
O          3.61900        2.62300        1.74000
C          4.90500        1.01700        0.54200
C          4.82200       -0.47700        0.75100
O          4.00100       -1.14000        0.10700
C          5.79000       -1.14500        1.74800
C          5.54600       -0.60300        3.16100
C          5.55800       -2.66800        1.75600
C          7.23900       -0.88000        1.31500
H          1.58900        2.11800        0.36100
H          2.08100        0.42700        0.20800
H          2.61100        1.63300       -1.01000
H          5.69800        1.44700        1.15900
H          5.18400        1.21100       -0.49900
H          4.52400       -0.81400        3.49500
H          5.68600        0.48200        3.21500
H          6.23600       -1.05700        3.88200
H          4.54000       -2.91500        2.08000
H          6.25500       -3.17500        2.43200
H          5.69400       -3.09700        0.75500
H          7.48000        0.18700        1.31300
H          7.42100       -1.25600        0.30200
H          7.94900       -1.37000        1.99100
