22
7311-34-4.pdb
C          1.28600       -0.13700        0.44700
O          2.47600        0.01300       -0.31800
C          3.12200        1.21800       -0.23200
C          2.68300        2.33100        0.49300
C          3.44200        3.50700        0.51300
O          3.12500        4.65200        1.19200
C          1.93200        4.64000        1.96600
C          4.63700        3.56800       -0.20400
C          5.07200        2.46000       -0.93200
C          6.33900        2.51500       -1.68700
O          7.04500        3.51500       -1.70700
C          4.31800        1.28600       -0.94900
H          0.93200       -1.16400        0.31700
H          0.50200        0.53600        0.08600
H          1.47800        0.01400        1.51500
H          1.75100        2.28400        1.04100
H          1.85700        5.60200        2.48200
H          1.96100        3.85500        2.72900
H          1.05200        4.53400        1.32400
H          5.22900        4.48200       -0.19200
H          6.62400        1.60200       -2.23700
H          4.64900        0.41800       -1.51300
