24
7314-44-5.pdb
C          1.44800        0.31100       -0.54200
O          2.63800       -0.10200        0.11900
C          3.24400       -1.23600       -0.34700
C          2.83000       -1.99400       -1.43700
C          3.54300       -3.14000       -1.80300
C          4.67400       -3.58000       -1.08300
C          5.35600       -4.86600       -1.47900
O          4.64900       -5.60500       -2.47000
C          5.09900       -2.79300        0.00300
O          6.12300       -3.07200        0.87000
C          7.34600       -3.54500        0.32200
C          4.37500       -1.64200        0.36100
H          1.09800        1.23000       -0.06300
H          0.65800       -0.44100       -0.43700
H          1.63800        0.53900       -1.59600
H          1.95500       -1.73000       -2.02100
H          3.18800       -3.70400       -2.66400
H          5.46400       -5.52000       -0.60800
H          6.34200       -4.64900       -1.90200
H          3.84100       -5.93000       -2.04300
H          8.15800       -3.22000        0.98000
H          7.54900       -3.14600       -0.67700
H          7.35400       -4.63800        0.32400
H          4.70200       -1.05200        1.21500
