22
7314-32-1.pdb
C          1.12500        0.00300        0.05300
S          2.89700       -0.11800       -0.02100
O          3.25900       -1.44900        0.42400
O          3.31300        0.38400       -1.31600
C          3.44500        1.04300        1.22500
C          4.96900        1.06000        1.31500
C          5.51200        2.06000        2.33800
N          5.12700        1.72500        3.73800
C          7.05300        2.13400        2.27700
O          7.57500        2.38400        3.50800
O          7.73400        2.02100        1.27200
H          0.70700       -0.68900       -0.68200
H          0.82700        1.02500       -0.18600
H          0.79300       -0.27600        1.05500
H          2.99100        0.72700        2.16900
H          3.05500        2.02800        0.94900
H          5.37400        1.31000        0.32500
H          5.34300        0.05400        1.53900
H          5.14600        3.07000        2.11800
H          5.33900        0.73400        3.90500
H          4.11300        1.79600        3.83900
H          6.81200        2.40100        4.13500
