31
73177-67-0.pdb
C          0.87300        0.13400       -0.07100
C          2.38700       -0.00800       -0.02300
C          3.00900        0.14300       -1.41500
C          4.55300        0.03900       -1.41300
C          5.00100       -1.34800       -0.92100
C          5.16500        0.31100       -2.81800
O          4.63700       -0.65800       -3.72800
C          5.01800        1.71600       -3.39300
C          4.93200        2.85700       -2.58000
C          4.87400        4.13800       -3.13900
C          4.91100        4.30400       -4.52000
C          5.01300        3.19000       -5.34500
C          5.07700        1.91000       -4.78700
H          0.45000        0.01300        0.93100
H          0.42900       -0.62900       -0.72000
H          0.58100        1.11900       -0.44700
H          2.62300       -0.99000        0.40000
H          2.80000        0.74900        0.65300
H          2.70600        1.11300       -1.82400
H          2.58300       -0.62100       -2.07700
H          4.95500        0.76900       -0.70000
H          4.49300       -2.15100       -1.46400
H          4.79100       -1.47300        0.14600
H          6.08000       -1.48000       -1.04800
H          6.24600        0.12500       -2.76100
H          3.78700       -0.31200       -4.04800
H          4.92400        2.77800       -1.49700
H          4.80900        5.00900       -2.49000
H          4.87400        5.30000       -4.95100
H          5.05800        3.31300       -6.42400
H          5.19200        1.05800       -5.45500
