27
73357-18-3.pdb
C          0.94500       -0.04200       -0.26400
O          2.30800        0.16400        0.09800
C          3.01600       -0.94700        0.47700
C          2.68400       -2.24500        0.03800
C          3.44700       -3.37900        0.37600
C          3.05000       -4.77400       -0.06900
C          1.81000       -4.91700       -0.95200
O          0.71300       -4.60200       -0.40100
O          2.02000       -5.34400       -2.12100
C          4.58500       -3.15200        1.16600
C          4.94500       -1.87100        1.60700
C          4.15700       -0.76600        1.27400
O          4.65100        0.41700        1.76600
C          3.69400        1.41800        2.09100
N          5.45800       -4.24200        1.57200
O          6.07400       -4.85100        0.68800
O          5.59000       -4.43000        2.79200
H          0.49600        0.94200       -0.42300
H          0.39300       -0.53500        0.54600
H          0.85400       -0.59100       -1.20400
H          1.81200       -2.39100       -0.59600
H          2.87600       -5.38700        0.82400
H          3.89100       -5.21800       -0.61700
H          5.83300       -1.72700        2.21800
H          4.17900        2.12600        2.76900
H          2.82500        1.00400        2.61300
H          3.40100        1.98200        1.20100
