19
7341-24-4.pdb
C          2.51200        0.17200        0.06100
C          1.01100        0.06000        0.05200
C          0.25300        1.24400        0.06600
C         -1.14100        1.20400        0.03700
C         -1.79800       -0.01800       -0.01000
C         -1.06100       -1.20200       -0.03400
C          0.34900       -1.18800       -0.00000
C          1.09100       -2.50400       -0.08100
S          0.74200       -3.62000        1.30900
H          2.83700        1.21300        0.16100
H          2.92700       -0.21400       -0.87600
H          2.93100       -0.38000        0.90800
H          0.74600        2.21200        0.09200
H         -1.71100        2.12900        0.04800
H         -2.88500       -0.05400       -0.03200
H         -1.59600       -2.15000       -0.08200
H          2.17400       -2.36200       -0.10800
H          0.82000       -3.00700       -1.01600
H          1.19500       -2.80500        2.27200
