8
7341-96-0.pdb
N          1.18800       -0.08900        0.10000
C          2.54600       -0.04300        0.08000
O          3.17100        0.91900       -0.34100
C          3.23200       -1.20500        0.58900
C          3.81500       -2.16700        1.01100
H          0.68300        0.71200       -0.25100
H          0.68000       -0.88800        0.45100
H          4.35200       -3.00900        1.38000
