25
7356-41-4.pdb
C          2.86400       -0.10600        0.00700
C          1.36600       -0.05300       -0.00000
C          0.70000        1.16900       -0.00600
C         -0.69400        1.20400       -0.01500
C         -1.47000        0.02500       -0.02700
C         -2.96000        0.21800        0.01500
C         -0.80100       -1.21300       -0.04200
O         -1.33700       -2.47800       -0.04400
C         -2.60500       -2.66100       -0.66700
C         -2.76200       -4.08400       -1.19400
O         -1.67100       -4.86400       -0.98700
O         -3.76300       -4.49100       -1.76000
C          0.60800       -1.23200       -0.00700
H          3.30000        0.90100       -0.00300
H          3.22800       -0.63300       -0.87900
H          3.22300       -0.61400        0.90700
H          1.25500        2.10400        0.00300
H         -1.17800        2.17900       -0.00200
H         -3.22300        1.28200        0.06800
H         -3.38800       -0.25900        0.90200
H         -3.43900       -0.15500       -0.89200
H         -2.71100       -2.01700       -1.54300
H         -3.38900       -2.51000        0.07700
H         -0.97800       -4.34900       -0.52300
H          1.12500       -2.19000        0.00600
