16
7364-25-2.pdb
O          2.28700        1.32400       -0.05800
C          1.53000        0.37400       -0.01000
N          1.85500       -0.97300        0.02700
N          0.71300       -1.80800       -0.16000
C         -0.35700       -0.88600       -0.07200
C         -1.70800       -1.17100       -0.08000
C         -2.60900       -0.09800       -0.02000
C         -2.15200        1.23400        0.03600
C         -0.78500        1.51600        0.03700
C          0.07400        0.43600       -0.01400
H          2.76300       -1.28700       -0.29900
H          0.62200       -2.52000        0.56700
H         -2.06900       -2.19200       -0.14100
H         -3.68000       -0.29500       -0.02400
H         -2.87200        2.04800        0.07500
H         -0.40800        2.53100        0.07800
