21
7366-56-5.pdb
N          1.18600       -0.17300        0.31100
C          2.50200       -0.02800       -0.03300
S          2.85800        0.13900       -1.64800
N          3.32800       -0.12800        1.06300
C          4.72400        0.05700        1.17600
C          5.47700        0.86400        0.32100
C          6.86400        0.96400        0.47100
C          7.51400        0.26300        1.48900
C          6.76200       -0.48800        2.39700
C          5.37300       -0.58300        2.24100
C          8.98900        0.38400        1.59200
O          9.59800       -0.73200        2.04200
O          9.59800        1.38600        1.25600
H          0.52000       -0.04400       -0.44300
H          0.86700        0.12100        1.22400
H          2.89100       -0.60300        1.84100
H          5.01200        1.45800       -0.45900
H          7.43300        1.59200       -0.21300
H          7.23200       -0.98700        3.24100
H          4.81000       -1.18400        2.95100
H          9.03100       -1.52400        2.07600
