27
7367-81-9.pdb
C          0.90000        0.00600        0.05400
C          2.42000        0.01900        0.04400
C          2.95900        1.04500       -0.95300
C          4.48900        1.06100       -0.96800
C          5.02700        2.09300       -1.96400
C          6.52900        2.11400       -1.98800
C          7.27200        3.19500       -1.69700
C          8.74900        3.10500       -1.75000
O          9.37500        2.10400       -2.04600
O          9.27600        4.31200       -1.41600
C         10.70600        4.32300       -1.43900
H          0.53000       -0.73300        0.77200
H          0.50400       -0.25200       -0.93400
H          0.50200        0.98600        0.33800
H          2.78700       -0.98100       -0.21300
H          2.78500        0.25000        1.05200
H          2.58300        2.04200       -0.69100
H          2.58300        0.81200       -1.95700
H          4.86100        0.06300       -1.22900
H          4.86100        1.29000        0.03800
H          4.64500        3.08700       -1.70100
H          4.65600        1.85700       -2.97000
H          7.02800        1.18600       -2.26500
H          6.83300        4.14500       -1.41800
H         11.04700        5.32400       -1.16100
H         11.07600        4.10100       -2.44500
H         11.10800        3.60800       -0.71400
