16
73708-65-3.pdb
N          0.98100       -0.09200       -0.00500
C          2.48000       -0.00000       -0.02600
C          2.98700       -0.98300        1.04400
O          2.33000       -0.65500        2.27000
C          2.97300       -0.36000       -1.42700
O          2.42700       -1.64100       -1.76600
H          0.67800       -0.15700        0.98000
H          0.69700       -0.95800       -0.49000
H          0.51800        0.70500       -0.45200
H          2.72800        1.03000        0.24800
H          4.07100       -0.89700        1.17300
H          2.73600       -2.02100        0.79900
H          2.80700       -1.12600        2.98500
H          4.06100       -0.40600       -1.45700
H          2.62100        0.36700       -2.16300
H          3.03900       -2.05300       -2.41100
