40
73724-45-5.pdb
O          4.12800       -4.62000       -2.84900
C          3.22900       -5.27000       -1.94100
C          1.79700       -4.75800       -2.10000
N          0.93400       -5.06600       -0.92900
C          0.82800       -4.32300        0.19600
O         -0.21400       -4.24600        0.83400
O          1.99800       -3.74000        0.57400
C          1.96200       -2.94900        1.78500
C          1.68100       -3.75100        3.07100
C          2.83500       -4.67300        3.46300
C          3.41500       -5.68700        2.71800
C          4.47300       -6.39800        3.28300
C          4.92800       -6.10100        4.57700
C          4.32400       -5.09400        5.33500
C          3.27500       -4.38600        4.77300
C          2.47600       -3.30700        5.31200
C          2.49600       -2.72100        6.57000
C          1.59000       -1.69100        6.84100
C          0.68600       -1.25900        5.85600
C          0.65900       -1.85600        4.59300
C          1.55700       -2.88100        4.32800
C          1.22700       -5.42300       -3.39800
O          1.16100       -6.68900       -3.37300
O          0.78200       -4.62200       -4.26700
H          4.77200       -5.29300       -3.12300
H          3.61300       -5.04500       -0.94400
H          3.30800       -6.35500       -2.07700
H          1.79700       -3.67000       -2.22400
H          0.07600       -5.53700       -1.19100
H          1.22500       -2.15000        1.64100
H          2.94000       -2.46000        1.85200
H          0.77900       -4.36600        3.00000
H          3.06100       -5.92500        1.71900
H          4.95100       -7.19000        2.71000
H          5.76000       -6.66400        4.99400
H          4.67800       -4.87700        6.33600
H          3.18300       -3.05900        7.33600
H          1.58000       -1.22900        7.82400
H         -0.01600       -0.46000        6.09100
H         -0.06300       -1.53400        3.84600
