55
7390-81-0.pdb
C          0.85300        0.07100       -0.09900
C          2.37200        0.06700       -0.09200
C          2.91100       -0.93300        0.92600
C          4.43700       -0.94000        0.93500
C          4.96400       -1.94300        1.95400
C          6.48600       -1.95500        1.96600
C          7.00600       -2.95800        2.98700
C          8.52800       -2.97300        2.99700
C          9.04600       -3.97700        4.01800
C         10.56800       -3.98600        4.02900
C         11.08900       -4.99200        5.04800
C         12.61200       -5.00100        5.05700
C         13.13800       -6.00700        6.07300
C         14.66200       -6.01400        6.07800
C         15.19700       -7.01900        7.09200
C         16.72200       -7.00100        7.12600
C         17.25400       -7.98800        8.11400
C         18.73800       -8.19300        8.25100
O         17.90900       -9.12200        7.53800
H          0.48000        0.79200       -0.83200
H          0.46000        0.34900        0.88500
H          0.45900       -0.91700       -0.36000
H          2.73800        1.07300        0.14400
H          2.74000       -0.18700       -1.09300
H          2.54100       -1.93800        0.69000
H          2.54000       -0.67900        1.92700
H          4.81200        0.06200        1.17600
H          4.81300       -1.19700       -0.06300
H          4.59000       -2.94600        1.71500
H          4.59000       -1.68900        2.95400
H          6.86500       -0.95300        2.20600
H          6.86400       -2.21200        0.96900
H          6.62900       -3.96000        2.74700
H          6.63100       -2.70100        3.98500
H          8.90800       -1.97200        3.23700
H          8.90500       -3.23200        2.00000
H          8.67000       -4.97800        3.77800
H          8.67000       -3.71600        5.01600
H         10.94500       -2.98500        4.27100
H         10.94500       -4.24200        3.03100
H         10.71300       -5.99300        4.80700
H         10.71300       -4.73600        6.04700
H         12.98700       -3.99900        5.29800
H         12.98600       -5.25400        4.05700
H         12.76200       -7.00900        5.83100
H         12.76400       -5.75300        7.07200
H         15.03300       -5.01100        6.32100
H         15.03500       -6.26400        5.07700
H         14.84000       -8.02700        6.84400
H         14.80300       -6.78200        8.08900
H         17.06700       -5.99800        7.40500
H         17.11600       -7.20800        6.12300
H         16.63500       -8.13200        8.99000
H         19.12100       -8.50200        9.21500
H         19.40400       -7.56500        7.67500
