16
7418-65-7.pdb
N          2.40900        0.00700        0.21300
C          1.01600       -0.04200        0.01200
C          0.29000        1.15100        0.06200
C         -1.09500        1.10200        0.00500
N         -1.80100       -0.04400       -0.07500
C         -1.08700       -1.19400       -0.08900
C          0.30000       -1.25200       -0.00600
C          1.00400       -2.55200       -0.04800
O          0.35300       -3.57100        0.55400
O          2.09500       -2.68900       -0.57900
H          2.85700        0.83800       -0.16400
H          2.87900       -0.84600       -0.11300
H          0.79100        2.11000        0.14500
H         -1.68700        2.01300        0.02700
H         -1.69500       -2.08900       -0.18700
H         -0.39200       -3.32600        1.13400
