32
74257-00-4.pdb
C          2.12100        1.95000        0.00900
C          1.02900        0.92200       -0.04400
C          1.32700       -0.43700       -0.09000
C          0.31500       -1.41900       -0.11000
C          0.79000       -2.84900       -0.13300
C         -1.04500       -1.01300       -0.07100
C         -1.36100        0.37100       -0.03600
C         -2.74400        0.96800        0.00800
C         -0.30900        1.31200       -0.02500
S         -2.35500       -2.22600        0.08200
O         -1.84300       -3.58100        0.02100
O         -3.23600       -1.82900        1.16700
N         -3.31700       -2.11400       -1.32800
C         -4.43100       -2.90100       -1.44600
N         -5.01400       -2.68500       -2.60400
C         -4.18900       -1.74600       -3.17900
N         -3.12600       -1.36400       -2.44600
N         -4.44900       -1.18500       -4.50200
O         -5.41700       -1.64000       -5.12700
O         -3.69300       -0.28800       -4.90700
H          3.11100        1.48800       -0.06400
H          2.07700        2.49800        0.95600
H          2.02000        2.65400       -0.82200
H          2.37300       -0.74300       -0.09700
H          1.87100       -2.90800       -0.31100
H          0.32800       -3.40400       -0.95400
H          0.59700       -3.33000        0.83000
H         -3.55700        0.24600       -0.02400
H         -2.88300        1.63100       -0.85300
H         -2.86500        1.55400        0.92600
H         -0.54400        2.37700        0.01500
H         -4.75300       -3.59100       -0.67600
