19
7431-25-6.pdb
C          1.00600        0.12400       -0.09400
C          2.52200        0.09700       -0.07700
N          3.26200       -0.54700       -0.94100
O          2.49100       -1.24200       -1.87600
C          3.25700        0.91000        1.02200
C          2.91300        2.39300        0.91300
C          2.93400        0.36500        2.41000
O          4.67400        0.80100        0.86000
H          0.57500       -0.49000       -0.88700
H          0.66600        1.15200       -0.24800
H          0.61900       -0.24000        0.86000
H          3.16300       -1.74000       -2.37800
H          1.85500        2.58800        1.11100
H          3.14500        2.76900       -0.09000
H          3.50900        2.98500        1.61700
H          1.87800        0.48900        2.66900
H          3.53600        0.86500        3.17700
H          3.17400       -0.70300        2.47100
H          4.82500        0.66800       -0.09600
