22
74370-93-7.pdb
C          0.93400        0.04700       -0.02200
C          2.47400        0.11600        0.03000
C          3.01900       -1.28300        0.38100
C          2.98900        0.48700       -1.37600
C          2.91700        1.13600        1.07200
C          2.62000        1.11600        2.42400
S          3.31400        2.47100        3.20700
C          3.95000        2.99700        1.70500
N          4.67900        4.12200        1.61000
N          3.69200        2.22200        0.68300
H          0.59400       -0.68200       -0.76700
H          0.50300        1.02000       -0.28300
H          0.51100       -0.25000        0.94400
H          2.70600       -2.02700       -0.36200
H          2.65900       -1.62600        1.35700
H          4.11500       -1.28600        0.41500
H          2.67300       -0.24800       -2.12400
H          4.08500        0.53200       -1.39900
H          2.61200        1.46600       -1.69400
H          2.03900        0.39200        2.97600
H          5.12900        4.46600        2.44800
H          5.23300        4.21000        0.76600
