30
7465-88-5.pdb
C          1.22300       -0.74600       -0.00100
O          2.39500        0.05700        0.06200
C          3.03500        0.12500        1.26800
C          2.63500       -0.50300        2.44600
C          3.39100       -0.34800        3.61500
C          4.54700        0.44300        3.61300
C          4.95700        1.05900        2.42700
C          4.19800        0.90100        1.26600
C          5.32400        0.57100        4.87800
O          5.29400       -0.36400        5.66900
N          5.96000        1.78800        5.06100
C          6.77200        2.15100        6.15600
C          7.28000        1.23200        7.07500
C          8.05500        1.66000        8.15600
C          8.32900        3.01400        8.32700
C          7.84700        3.93800        7.40500
C          7.08100        3.50800        6.31600
H          0.85100       -0.71400       -1.02900
H          0.43800       -0.34700        0.65100
H          1.44500       -1.79100        0.24100
H          1.74600       -1.12400        2.49400
H          3.07600       -0.84900        4.52900
H          5.87800        1.63400        2.37800
H          4.52200        1.37700        0.34100
H          5.72000        2.53600        4.42300
H          7.10000        0.16600        6.96900
H          8.43800        0.93000        8.86400
H          8.91800        3.34500        9.17800
H          8.05900        4.99600        7.53600
H          6.71100        4.25200        5.61600
