32
7465-86-3.pdb
C          2.60200       -0.09800        1.32400
C          2.51100       -0.07500       -0.19700
N          2.93900       -1.33400       -0.81300
C          1.93900       -2.32500       -1.23300
C          0.51900       -2.20900       -0.70000
C          4.32700       -1.49100       -0.99200
O          5.14500       -0.66900       -0.57100
C          4.89800       -2.68800       -1.69100
C          4.34200       -3.23700       -2.84900
C          4.88300       -4.38700       -3.43300
C          6.04100       -4.96100       -2.91400
O          6.66300       -6.07700       -3.40000
C          6.00300       -6.76400       -4.45900
C          6.66300       -4.35900       -1.81700
C          6.09500       -3.23500       -1.20400
H          2.24500        0.85200        1.73600
H          3.63400       -0.24100        1.66000
H          1.99900       -0.90400        1.75200
H          3.15000        0.73400       -0.57100
H          1.49700        0.17600       -0.51800
H          2.32300       -3.32300       -0.99700
H          1.85500       -2.23200       -2.31800
H          0.48400       -2.24700        0.39100
H         -0.07900       -3.04000       -1.09200
H          0.03500       -1.28900       -1.04100
H          3.49500       -2.77300       -3.33600
H          4.38000       -4.79700       -4.30200
H          6.59000       -7.65500       -4.70000
H          5.95400       -6.14300       -5.36000
H          5.00400       -7.09700       -4.15500
H          7.59500       -4.76900       -1.43500
H          6.59700       -2.78100       -0.35100
