22
7466-54-8.pdb
C          1.12000       -0.63300        0.26000
O          2.24200        0.14600       -0.14600
C          2.98300        0.76300        0.83000
C          2.62700        0.75300        2.18700
C          3.42600        1.38400        3.14400
C          4.59700        2.02500        2.76200
C          4.95700        2.05800        1.41600
C          4.15300        1.44600        0.43500
C          4.60700        1.61700       -0.98800
O          5.61700        2.26500       -1.25100
N          3.82700        1.04400       -1.98300
N          4.17600        1.21500       -3.33900
H          0.72200       -1.13000       -0.63000
H          0.33200        0.00800        0.66600
H          1.40900       -1.41300        0.97200
H          1.72200        0.26800        2.53900
H          3.13200        1.37100        4.19100
H          5.22500        2.51100        3.50400
H          5.87200        2.57600        1.12900
H          3.02300        0.46800       -1.73000
H          5.13000        1.60300       -3.34200
H          3.60200        1.97700       -3.70900
