22
7471-63-8.pdb
C          0.99600        0.02600        0.02100
C          2.49900        0.02300        0.00400
C          3.18200       -1.19500        0.00900
C          4.57300       -1.21700       -0.05000
C          5.31200       -0.02300       -0.11800
C          6.71100       -0.06500       -0.20900
C          7.43800        1.11500       -0.29100
C          6.74100        2.30300       -0.25700
N          5.39500        2.37800       -0.15400
C          4.67000        1.23200       -0.10300
C          3.27000        1.20800       -0.03900
N          2.59400        2.48700       -0.01700
O          1.99500        2.78700        1.02700
O          2.58400        3.15000       -1.06500
H          0.59700       -0.99400       -0.01800
H          0.60500        0.55700       -0.85300
H          0.61500        0.48900        0.93600
H          2.63900       -2.13600        0.05100
H          5.08200       -2.18000       -0.05000
H          7.24000       -1.01400       -0.22900
H          8.51800        1.10400       -0.38000
H          7.25500        3.25800       -0.32000
