33
74737-05-6.pdb
C          1.35400       -0.22800        0.51300
O          2.54700       -0.12300       -0.25600
C          3.10200        1.12200       -0.37600
C          2.63800        2.28200        0.23000
C          3.28000        3.51500        0.02100
O          2.83800        4.66900        0.61600
C          1.68800        4.62100        1.45000
C          4.41200        3.61200       -0.83000
C          5.08300        4.93800       -1.16400
C          4.50400        6.26100       -0.66200
C          5.31300        7.43900       -1.14800
O          4.84000        8.61200       -0.67500
O          6.29500        7.37200       -1.87500
C          4.88800        2.41500       -1.41900
O          5.90100        2.27900       -2.33600
C          7.11300        2.99100       -2.13300
C          4.22600        1.19700       -1.19000
H          1.04100       -1.27700        0.51000
H          0.54500        0.36200        0.07000
H          1.52900        0.06200        1.55500
H          1.76100        2.22900        0.86000
H          1.51500        5.63100        1.83400
H          1.85000        3.96400        2.31000
H          0.80100        4.32600        0.88000
H          5.13400        5.00300       -2.25900
H          6.10600        4.89600       -0.77600
H          4.53700        6.29200        0.43300
H          3.47700        6.39400       -1.01900
H          4.05600        8.51100       -0.10000
H          7.92700        2.40200       -2.56800
H          7.35000        3.14300       -1.07500
H          7.08300        3.93700       -2.68100
H          4.59100        0.29300       -1.67400
