30
7473-93-0.pdb
O          3.61000       -4.22800        2.37700
N          3.12700       -3.14400        2.02200
O          2.26800       -2.50000        2.64100
C          3.55200       -2.62200        0.73600
C          3.34100       -3.43200       -0.39000
C          3.67400       -2.94500       -1.65200
C          4.20300       -1.66100       -1.78300
C          4.43100       -0.87000       -0.65100
C          4.12500       -1.34500        0.63300
C          4.47800       -0.49300        1.77400
C          3.63900        0.42400        2.27900
C          4.08900        1.28600        3.40800
O          5.27800        1.44900        3.66000
C          3.04100        1.99500        4.18900
C          1.76800        1.44300        4.38000
C          0.81000        2.13900        5.12400
C          1.12000        3.38000        5.67900
C          2.39300        3.92400        5.50800
C          3.35500        3.23100        4.77000
H          2.92100       -4.43100       -0.29000
H          3.51900       -3.56200       -2.53500
H          4.45200       -1.27500       -2.76900
H          4.86600        0.12100       -0.78100
H          5.48000       -0.62400        2.18000
H          2.64000        0.56800        1.88500
H          1.51200        0.46200        3.98900
H         -0.17600        1.70700        5.27600
H          0.37300        3.91700        6.25900
H          2.63700        4.88500        5.95400
H          4.34800        3.65800        4.64700
