23
74772-16-0.pdb
C          1.25700        0.33200        2.91900
O          2.66300        0.39100        2.69800
C          3.03300        0.31900        1.38200
O          2.23600        0.21000        0.45900
C          4.47900        0.41500        1.25600
S          5.48300       -0.26200        2.48400
C          6.90800        0.04900        1.60500
C          6.64700        0.65200        0.39700
C          5.24500        0.90100        0.20700
N          4.74600        1.60400       -0.93400
C          5.32800        1.63500       -2.18600
C          4.59300        2.46600       -3.00300
C          3.54400        2.99700       -2.22400
C          3.65100        2.44000       -0.96900
H          1.08500        0.45800        3.99200
H          0.86100       -0.64100        2.61400
H          0.74900        1.14500        2.39100
H          7.87200       -0.21800        2.02000
H          7.43500        0.95800       -0.28200
H          6.18900        1.02100       -2.41100
H          4.79300        2.66700       -4.04800
H          2.78800        3.70500       -2.53400
H          3.05000        2.61400       -0.08700
