44
7477-67-0.pdb
C         -2.62200       -0.50700       -0.13500
C         -1.19200       -0.11500        0.00800
N         -0.79000        1.11700        0.06800
N          0.58900        1.07600        0.06400
C          1.29200        2.30500        0.09900
C          2.67600        2.36800       -0.09700
C          3.34300        3.59500       -0.10600
C          2.64000        4.77800        0.10900
C          1.26900        4.73300        0.34200
C          0.60000        3.50700        0.33800
C          1.12200       -0.22200       -0.05400
O          2.26100       -0.61200       -0.19500
C         -0.08200       -1.12500        0.13400
C          0.00300       -1.76300        1.52700
C         -0.81800       -1.03400        2.56100
N         -1.92100       -1.62900        2.87600
N         -1.91100       -2.84400        2.22000
C         -3.00400       -3.71400        2.43300
C         -2.95800       -5.06000        2.05500
C         -3.99700       -5.92800        2.39800
C         -5.11500       -5.45500        3.08100
C         -5.21100       -4.10200        3.39700
C         -4.16300       -3.24100        3.07000
C         -0.72300       -3.09100        1.50800
O         -0.32600       -4.08600        0.93500
C         -0.40600        0.27700        3.14300
H         -3.24800        0.37700       -0.26200
H         -2.97900       -1.03500        0.74400
H         -2.72200       -1.17000       -0.99700
H          3.26600        1.47400       -0.27300
H          4.41500        3.62300       -0.29100
H          3.16100        5.73100        0.09400
H          0.71600        5.65200        0.52000
H         -0.47000        3.50100        0.52800
H         -0.12000       -1.83600       -0.69300
H          1.01400       -1.91500        1.89900
H         -2.10100       -5.47500        1.53300
H         -3.91900       -6.98500        2.14800
H         -5.90800       -6.13900        3.36900
H         -6.08600       -3.72300        3.91900
H         -4.26200       -2.18700        3.32800
H          0.56000        0.58300        2.73700
H         -0.32100        0.17900        4.21800
H         -1.16100        1.03700        2.90600
