28
7481-89-2.pdb
N          8.74000        5.26500        0.56300
C          8.22000        3.99900        0.52700
N          7.44500        3.70500       -0.47100
C          6.91800        2.44000       -0.57600
O          6.11200        2.17200       -1.46800
N          7.32300        1.46800        0.34700
C          8.08300        1.81600        1.44300
C          8.55400        3.05100        1.59600
C          6.82400        0.10700        0.15100
C          7.30700       -0.54300       -1.14700
C          8.60400       -1.18500       -0.73000
C          8.27100       -1.67800        0.66500
C          9.50500       -1.74400        1.56500
O          9.15400       -2.19300        2.87100
O          7.30200       -0.75700        1.21100
H          8.26600        5.89700       -0.07500
H          8.92800        5.66700        1.47000
H          8.28400        1.05700        2.19200
H          9.15900        3.35500        2.43700
H          5.73000        0.14000        0.19200
H          7.43500        0.13600       -1.99300
H          6.60000       -1.32600       -1.44900
H          9.39700       -0.42800       -0.70400
H          8.92500       -1.98900       -1.39800
H          7.77700       -2.65700        0.63000
H          9.96800       -0.75800        1.67600
H         10.24900       -2.43300        1.15500
H          8.43900       -1.60400        3.17600
