36
7493-95-0.pdb
O          2.43000       -0.07100       -1.42600
C          1.97600       -0.03700       -0.07500
C          2.81300        0.90800        0.80900
O          2.68100        2.28400        0.42100
C          3.36900        2.64800       -0.78200
O          3.21200        4.06100       -1.01100
C          1.93700        4.48700       -1.28800
C          1.67300        5.82900       -0.98100
C          0.40700        6.37900       -1.21400
C         -0.59500        5.58200       -1.78000
C         -0.33900        4.24800       -2.10600
C          0.92800        3.70500       -1.86100
N         -1.92700        6.14700       -2.02600
O         -2.12100        7.32800       -1.71000
O         -2.77900        5.40900       -2.54300
C          4.88000        2.34600       -0.65400
O          5.50500        3.12300        0.39400
C          5.08900        0.87100       -0.30300
O          6.47900        0.60600       -0.04100
C          4.28600        0.50600        0.95100
O          4.41300       -0.88900        1.24100
H          1.92900       -0.78000       -1.87000
H          2.00900       -1.05700        0.32000
H          0.93600        0.30000       -0.09400
H          2.36300        0.84300        1.80800
H          2.99800        2.10500       -1.65200
H          2.45300        6.44600       -0.53900
H          0.22300        7.41800       -0.95000
H         -1.10400        3.61400       -2.55400
H          1.09000        2.66900       -2.13600
H          5.40800        2.60600       -1.57800
H          4.81900        3.73300        0.73000
H          4.81700        0.22200       -1.14000
H          6.81700        1.41900        0.39000
H          4.71800        1.04000        1.80800
H          5.31700       -1.13500        0.95800
