22
7498-57-9.pdb
N          1.08400        0.81100       -0.38700
C          2.28300        0.47600       -0.19000
C          3.72900        0.07200        0.04700
C          4.21700       -0.73000       -1.13900
C          4.06400       -2.12100       -1.16200
C          4.36400       -2.84600       -2.31700
C          4.81300       -2.19900       -3.47700
C          5.06300       -2.91200       -4.66000
C          5.49100       -2.25400       -5.81400
C          5.68500       -0.87600       -5.79500
C          5.44100       -0.15200       -4.62600
C          4.99700       -0.79700       -3.46000
C          4.70100       -0.08000       -2.28800
H          3.80300       -0.51900        0.96700
H          4.34800        0.96600        0.18300
H          3.67400       -2.65200       -0.29500
H          4.21400       -3.92400       -2.31400
H          4.91100       -3.98900       -4.69600
H          5.66700       -2.81700       -6.72600
H          6.01600       -0.36100       -6.69300
H          5.58800        0.92500       -4.63700
H          4.80700        1.00400       -2.28700
