37
7499-60-7.pdb
O          3.02600       -0.91000        2.84300
C          3.83500       -1.85100        2.29900
O          4.02600       -2.92900        2.82100
C          4.48400       -1.38000        1.02300
C          4.78100       -2.55900        0.10300
C          5.43800       -2.11800       -1.19100
O          4.75800       -1.79500       -2.15900
C          6.94000       -2.06700       -1.24200
C          7.62900       -1.79200       -0.05500
C          9.01800       -1.74400       -0.02700
C          9.75200       -1.97500       -1.18900
C         11.15300       -1.93200       -1.16400
C         11.89800       -2.15800       -2.32300
C         11.25900       -2.43600       -3.53600
C         11.99900       -2.66200       -4.70700
C         11.35400       -2.94100       -5.91100
C          9.96300       -2.99800       -5.95600
C          9.20000       -2.77500       -4.80200
C          7.80900       -2.83100       -4.84000
C          7.05700       -2.60300       -3.68600
C          7.65900       -2.30200       -2.44400
C          9.07700       -2.25500       -2.40300
C          9.84500       -2.48900       -3.57800
H          2.96300       -0.08400        2.32700
H          5.39500       -0.84100        1.28900
H          3.82300       -0.67400        0.51600
H          3.84800       -3.07900       -0.13900
H          5.42800       -3.28800        0.59500
H          7.11800       -1.62200        0.88400
H          9.51700       -1.53600        0.91700
H         11.68500       -1.72000       -0.23900
H         12.98400       -2.11500       -2.26800
H         13.08600       -2.62200       -4.69100
H         11.93500       -3.11300       -6.81300
H          9.47700       -3.21900       -6.90500
H          7.28500       -3.05400       -5.76600
H          5.97800       -2.66300       -3.78900
