7
75-52-5.pdb
C          0.95600        0.03500       -0.09600
N          2.44300        0.04500       -0.10700
O          2.99900        0.77700       -0.93500
O          3.01200       -0.68300        0.71500
H          0.59200        0.71800       -0.86700
H          0.63200        0.36200        0.89400
H          0.63200       -0.98700       -0.30100
