14
7504-94-1.pdb
N          3.10500        1.21700       -0.27300
N          2.38300        0.00900       -0.14800
C          3.03300       -1.13400        0.36400
N          4.11500       -1.01100        1.15400
C          4.68900       -2.14500        1.59200
C          4.24000       -3.39700        1.25800
C          3.14200       -3.42400        0.43400
N          2.52800       -2.31700       -0.02700
H          2.54800        1.93500       -0.73400
H          3.95300        1.07200       -0.82400
H          1.81600       -0.32100       -0.92900
H          5.54800       -2.00600        2.24100
H          4.71600       -4.29700        1.61900
H          2.70900       -4.36400        0.10700
