30
7512-17-6.pdb
C          1.08800        0.18100       -0.47900
C          2.59200        0.28900       -0.49500
O          3.18200        1.35500       -0.46700
N          3.22400       -0.93700       -0.50700
C          4.69600       -1.01500       -0.61600
C          5.18200       -1.00600       -2.08900
O          6.53800       -0.61800       -2.23400
O          4.92200       -2.24800       -2.75100
C          5.40100       -3.44400       -2.12100
C          6.92600       -3.65400       -2.22900
O          7.36900       -3.68600       -3.58300
C          4.89400       -3.54600       -0.67900
O          5.45200       -4.68100       -0.01500
C          5.22000       -2.26800        0.10000
O          4.67700       -2.39100        1.42400
H          0.64500        1.18000       -0.45600
H          0.77100       -0.36500        0.41500
H          0.73800       -0.34200       -1.37400
H          2.68200       -1.71100       -0.88000
H          5.10000       -0.13700       -0.09600
H          4.60800       -0.25400       -2.64000
H          7.01100       -0.70700       -1.39400
H          4.94600       -4.26400       -2.69100
H          7.21800       -4.60500       -1.77300
H          7.48700       -2.86600       -1.72200
H          6.78900       -4.29400       -4.07200
H          3.80700       -3.69000       -0.68400
H          5.50700       -4.45400        0.93500
H          6.30500       -2.19500        0.23500
H          3.78800       -1.98700        1.40600
