35
75184-71-3.pdb
C          1.23700        1.09900       -0.05700
C          2.66400        0.58500        0.03000
C          3.27200        0.82000        1.41000
S          4.95500        0.22800        1.47200
O          4.93600       -1.19900        1.20600
O          5.78500        1.12400        0.69100
C          5.44300        0.44700        3.17400
C          5.79700       -0.67500        3.93400
C          6.23400       -0.52100        5.25400
C          6.31300        0.77000        5.79200
N          6.70900        1.16900        7.03700
C          6.63100        2.47600        7.05100
N          6.93500        3.32400        8.08400
C          7.38100        2.85500        9.28900
O          7.57100        1.69700        9.63200
O          7.59800        3.91800       10.11500
C          8.06900        3.52900       11.41000
N          6.18300        2.94300        5.83800
C          5.96300        1.86600        5.01200
C          5.52200        1.75400        3.68900
H          0.82700        0.90800       -1.05400
H          1.19400        2.17700        0.12600
H          0.59400        0.59800        0.67400
H          3.27200        1.08000       -0.73700
H          2.67300       -0.48600       -0.20500
H          2.70300        0.29000        2.17900
H          3.28800        1.88900        1.64400
H          5.75800       -1.67600        3.50800
H          6.52600       -1.37600        5.85700
H          6.84400        4.32300        7.99600
H          8.22200        4.43200       12.00700
H          9.02600        3.00300       11.32700
H          7.32600        2.90300       11.91500
H          6.04600        3.91100        5.59300
H          5.28500        2.62500        3.08900
