26
75251-24-0.pdb
C          3.25800        0.60900       -1.09700
C          2.30700       -0.06000       -0.11400
C          2.77700       -1.43600        0.29100
C          3.66300       -1.60000        1.36200
C          4.14300       -2.86700        1.70100
C          3.74400       -3.99900        0.97400
C          4.34200       -5.35200        1.28000
C          3.47600       -6.30400        2.07700
C          2.69400       -5.77800        3.25100
O          3.46100       -7.51000        1.81200
C          2.83800       -3.84000       -0.07900
C          2.36400       -2.56800       -0.42100
H          2.85400        1.57600       -1.41400
H          3.40700       -0.00500       -1.99200
H          4.23900        0.78600       -0.64400
H          1.30800       -0.13000       -0.56000
H          2.19800        0.56900        0.77800
H          4.00300       -0.73400        1.92800
H          4.84800       -2.95900        2.52500
H          5.28800       -5.23500        1.82100
H          4.59000       -5.84000        0.32800
H          3.23600       -4.96900        3.74500
H          2.56300       -6.58200        3.98200
H          1.71500       -5.43400        2.91400
H          2.51500       -4.69800       -0.66500
H          1.68300       -2.46600       -1.26300
