19
7529-22-8.pdb
C          1.18300       -0.04800        0.11700
N          2.68600       -0.04900        0.14500
O          3.13800       -0.05300       -1.15200
C          3.18400        1.18400        0.87200
C          4.69400        1.12600        1.06100
O          5.05400       -0.04500        1.80800
C          4.69200       -1.22100        1.06600
C          3.18200       -1.27800        0.87800
H          0.86600        0.83300       -0.44800
H          0.81700       -0.01200        1.14600
H          0.86300       -0.96400       -0.38600
H          2.67000        1.19300        1.84000
H          2.88100        2.05100        0.27400
H          5.03100        1.99700        1.63100
H          5.22900        1.12700        0.10400
H          5.02900       -2.08900        1.64000
H          5.22700       -1.22500        0.10900
H          2.66700       -1.28200        1.84600
H          2.88100       -2.14700        0.28400
