19
7531-52-4.pdb
N          2.12700        1.22600       -0.53700
C          2.41700        0.02800        0.02900
O          2.00400       -0.27900        1.14900
C          3.30900       -0.95600       -0.74400
C          2.68700       -1.49400       -2.01600
C          1.84400       -2.67000       -1.54800
C          2.62900       -3.29000       -0.40700
N          3.51300       -2.20100        0.10300
H          1.57700        1.88300        0.01100
H          2.56400        1.59800       -1.37200
H          4.29200       -0.50200       -0.90100
H          3.47100       -1.84900       -2.69600
H          2.08200       -0.75800       -2.55600
H          1.66100       -3.39000       -2.35100
H          0.87000       -2.32100       -1.18900
H          3.28200       -4.10200       -0.74100
H          1.99100       -3.62900        0.41300
H          4.49800       -2.48400        0.14000
H          3.22700       -1.94800        1.07100
