24
7533-40-6.pdb
C          3.03700        0.67500       -1.33800
C          4.54300        0.89600       -1.21100
C          5.03300        1.84000       -2.31100
C          4.92600        1.47000        0.17100
C          4.56000        0.57900        1.37100
N          5.05500        1.29000        2.60300
C          5.26900       -0.78500        1.35000
O          6.67200       -0.54000        1.43600
H          2.76700        0.41400       -2.36600
H          2.47800        1.57400       -1.06000
H          2.70600       -0.14500       -0.69400
H          5.05000       -0.06200       -1.36100
H          4.56800        2.82800       -2.23000
H          4.80200        1.43500       -3.30200
H          6.12000        1.97300       -2.25400
H          4.44500        2.45000        0.29700
H          6.00700        1.66300        0.17600
H          3.47700        0.46900        1.48400
H          6.07700        1.40600        2.51400
H          4.91200        0.73000        3.44800
H          4.62300        2.21300        2.73800
H          5.03600       -1.36300        0.45200
H          4.97800       -1.38200        2.22000
H          7.10600       -1.03600        0.71300
