13
75428-45-4.pdb
O          1.32900        0.62800        0.45300
N          2.28400       -0.02500        0.01200
O          2.72600       -1.07100        0.50500
C          2.91700        0.49300       -1.17400
S          4.20700       -0.33800       -1.90200
C          4.33800        0.84300       -3.14000
C          3.41400        1.86100       -2.99900
C          3.31200        2.98500       -3.91800
O          2.49100        3.88600       -3.78400
C          2.58700        1.65100       -1.84300
H          5.09100        0.72200       -3.90800
H          4.02500        2.98800       -4.76100
H          1.79200        2.32400       -1.53700
