65
75567-37-2.pdb
C          3.46400        3.03800        3.11000
C          2.08300        2.54800        2.79700
C          1.22200        2.97300        1.84600
C         -0.11600        2.30700        1.69900
C          1.60300        4.01200        0.85500
O          2.74100        4.18400        0.43600
O          0.51300        4.74500        0.45600
C          0.82400        5.87900       -0.36700
C          0.32800        5.82300       -1.76900
C          0.16100        7.06600       -2.26600
C         -0.33700        7.98800       -1.16800
C         -1.96400        8.14600       -1.41900
C         -2.54700        7.34000       -2.63300
C         -2.51100        9.58800       -1.75800
C         -2.55600       10.73000       -0.78500
C         -1.49700       10.97400        0.23900
C         -0.38000       10.01000        0.32300
C          0.83300       10.33500        1.09200
C          1.59600        9.31800        1.52700
C          2.74800        9.64300        2.43900
O          2.37100        9.20900        3.74200
C          1.39800        7.84100        1.12000
O          1.34500        7.05800        2.33300
C          0.20500        7.21500        0.17200
O         -0.92500        6.87200        1.01000
C          0.12400        9.41900       -1.00200
O          0.79900       10.02400       -1.83100
C         -2.95800       10.64900        0.67800
C         -3.43200        9.32100        1.22800
C         -3.78400       11.78900        1.22500
C         -0.07000        4.54500       -2.41600
H          4.19900        2.26900        2.85200
H          3.73500        3.96400        2.60200
H          3.54700        3.23000        4.18600
H          1.75800        1.74200        3.45500
H         -0.58900        2.52900        0.73800
H         -0.78900        2.62800        2.50000
H         -0.01000        1.21600        1.75200
H          1.90900        5.99000       -0.48400
H         -0.09200        7.26200       -3.30100
H         -2.47800        7.74200       -0.55000
H         -3.63600        7.25600       -2.53800
H         -2.35300        7.86100       -3.58300
H         -2.18000        6.31900       -2.72800
H         -1.97800        9.95300       -2.64700
H         -3.55800        9.48200       -2.07700
H         -2.88700       11.62000       -1.32300
H         -1.15500       11.99600        0.37000
H         -0.82000        9.21300        0.91400
H          1.05400       11.37500        1.31500
H          2.95200       10.71700        2.49000
H          3.67400        9.13800        2.14200
H          1.63400        9.78900        4.01900
H          2.35400        7.60000        0.63600
H          1.83000        7.54000        3.03600
H         -0.55500        6.25400        1.67600
H         -4.17900        8.88000        0.55800
H         -3.91800        9.44700        2.20200
H         -2.64100        8.59500        1.39500
H         -3.65400       11.86200        2.31100
H         -4.84600       11.61800        1.01500
H         -3.50000       12.74900        0.78800
H          0.62400        3.73200       -2.20000
H         -0.18500        4.64700       -3.49800
H         -1.05200        4.25500       -2.01300
