31
75647-01-7.pdb
C         10.33300        0.80200       -0.14700
C          8.90300        0.63400        0.39700
C          8.66600       -0.76900        0.96100
C          8.72900        1.66600        1.52400
O          7.86500        0.93200       -0.57300
C          7.93700        0.42000       -1.82700
O          8.80700       -0.32700       -2.24900
N          6.97600        0.90900       -2.65500
C          5.54000        1.00200       -2.33300
C          4.84300       -0.36400       -2.47500
C          4.78100       -1.06400       -3.83300
N          5.39000       -0.50200       -4.90700
O          4.22400       -2.16100       -3.96300
C          4.75500        1.98100       -3.24700
O          3.75100        2.53900       -2.72600
O          5.20000        2.05500       -4.43500
H         11.07600        0.68500        0.64900
H         10.46200        1.79100       -0.60000
H         10.58800        0.06600       -0.91200
H          9.38200       -1.01200        1.75200
H          8.74300       -1.53100        0.18000
H          7.65300       -0.85000        1.37500
H          9.45500        1.51100        2.32900
H          7.72100        1.62300        1.95200
H          8.85900        2.68500        1.13900
H          7.14500        0.73900       -3.63800
H          5.44800        1.32900       -1.29100
H          5.33700       -1.07900       -1.80100
H          3.80300       -0.27200       -2.14100
H          5.41500        0.52800       -4.96100
H          5.18200       -0.93900       -5.79400
