12
758-16-7.pdb
C          1.02200       -0.10000       -0.03700
N          2.47500       -0.07700       -0.05000
C          3.14800        1.06100       -0.66500
C          3.16400       -1.14000        0.52400
S          4.82000       -1.33000        0.62900
H          0.60100        0.78700       -0.51600
H          0.67900       -0.15200        1.00100
H          0.67900       -0.99700       -0.56300
H          2.42600        1.78400       -1.05500
H          3.77500        0.70600       -1.48700
H          3.77500        1.55400        0.08400
H          2.47800       -1.90200        0.93400
