27
76-22-2.pdb
C          0.95800        0.03500        0.12000
C          2.49900        0.07200        0.10300
C          2.95100        0.06700        1.57700
C          3.15400       -1.03100       -0.77500
C          2.66400       -0.67700       -2.20200
C          2.64900        0.86800       -2.19700
C          3.10500        1.21300       -0.76000
C          2.84300        2.63500       -0.32700
C          4.58100        0.80200       -0.74900
O          5.53800        1.55700       -0.78400
C          4.67000       -0.71200       -0.72600
H          0.60100       -0.85300        0.65400
H          0.49600        0.01300       -0.87000
H          0.55700        0.91600        0.63400
H          2.60000       -0.84100        2.08100
H          2.53300        0.92600        2.11300
H          4.03500        0.11100        1.71400
H          2.92700       -2.06000       -0.48700
H          1.66100       -1.07600       -2.39100
H          3.32300       -1.07300       -2.98200
H          1.64500        1.24800       -2.41500
H          3.33100        1.26700       -2.95700
H          1.77200        2.86300       -0.33000
H          3.33800        3.34700       -0.99700
H          3.22700        2.82300        0.68200
H          5.14000       -1.05400        0.19800
H          5.21000       -1.08600       -1.59900
