32
76-89-1.pdb
C          1.01800       -1.09200       -0.38700
O          2.44700       -1.06700       -0.31900
C          2.94900       -0.67500        0.89400
O          2.25200       -0.26200        1.81300
C          4.52200       -0.80300        0.92500
O          5.01700       -1.21000       -0.37100
C          5.15800        0.57700        1.19500
C          6.03800        0.80800        2.26900
C          6.67600        2.04000        2.43100
C          6.44700        3.07200        1.52700
C          5.55200        2.88500        0.47900
C          4.90600        1.65600        0.32000
C          4.96400       -1.91500        1.90500
C          6.11500       -2.68800        1.64000
C          6.56100       -3.66500        2.53500
C          5.87000       -3.89100        3.72000
C          4.74300       -3.13300        4.01400
C          4.29900       -2.15000        3.12400
H          0.72800       -1.10400       -1.44000
H          0.56800       -0.21000        0.07900
H          0.65200       -2.00700        0.08700
H          4.67300       -0.57500       -1.01800
H          6.26000        0.02900        2.99500
H          7.36400        2.18500        3.26000
H          6.96600        4.02000        1.64100
H          5.36400        3.69400       -0.22200
H          4.21200        1.55100       -0.51200
H          6.68500       -2.52400        0.72600
H          7.45200       -4.24300        2.30300
H          6.21500       -4.64900        4.41600
H          4.20500       -3.29800        4.94600
H          3.43200       -1.56100        3.41800
