36
76-84-6.pdb
O          1.02800        0.04800       -0.19700
C          2.46300        0.08300        0.00600
C          2.76500       -1.30400        0.65100
C          3.17000       -2.40800       -0.12500
C          3.46900       -3.63900        0.46100
C          3.34200       -3.80500        1.83700
C          2.86700       -2.75900        2.61600
C          2.54900       -1.53300        2.02600
C          3.12100        0.26800       -1.38400
C          2.34500        0.43900       -2.54900
C          2.93100        0.45000       -3.81700
C          4.30800        0.30400       -3.94900
C          5.10200        0.17600       -2.81200
C          4.51800        0.17400       -1.54000
C          2.73400        1.30800        0.91800
C          3.75000        1.32100        1.89400
C          3.84300        2.35300        2.83200
C          2.97000        3.43400        2.77100
C          2.03000        3.50200        1.74900
C          1.91700        2.45400        0.82900
H          0.78900       -0.87900       -0.32600
H          3.26700       -2.32900       -1.20700
H          3.80300       -4.46600       -0.16100
H          3.59600       -4.75900        2.29500
H          2.74700       -2.89000        3.68800
H          2.15000       -0.74400        2.66300
H          1.26300        0.53900       -2.48400
H          2.30700        0.55600       -4.70100
H          4.76100        0.29000       -4.93700
H          6.17800        0.05800       -2.91500
H          5.15900        0.04200       -0.67100
H          4.44600        0.48700        1.97900
H          4.58100        2.29800        3.62800
H          3.02300        4.22400        3.51700
H          1.36200        4.35800        1.67800
H          1.15300        2.51900        0.05600
