19
760-78-1.pdb
C          0.90100        0.05100       -0.04600
C          2.42200        0.08200       -0.04800
C          2.97800        0.42000        1.33800
C          4.51000        0.39500        1.40000
N          5.13800        1.44200        0.54000
C          5.01300        0.60500        2.84100
O          6.18300        1.30000        2.84800
O          4.47700        0.18500        3.85500
H          0.52600       -0.18900       -1.04500
H          0.48900        1.02200        0.24800
H          0.52400       -0.70700        0.64900
H          2.75400        0.82200       -0.78500
H          2.80000       -0.89400       -0.37200
H          2.58200       -0.30600        2.06000
H          2.60500        1.40000        1.66000
H          4.89100       -0.58100        1.07700
H          4.64300        2.32600        0.70600
H          4.92900        1.21900       -0.43700
H          6.36500        1.52700        1.90300
