30
76003-29-7.pdb
C          3.45800        0.12500        1.39900
C          2.77600        0.01500        0.02600
C          2.98000       -1.36100       -0.62300
C          1.26700        0.21700        0.24400
O          3.21000        1.07500       -0.87200
C          4.53000        1.16000       -1.20000
O          5.39300        0.39300       -0.78600
N          4.82500        2.20700       -2.04300
C          6.22000        2.52600       -2.31600
C          6.43300        2.63600       -3.81800
N          5.50800        3.58100       -4.41200
C          4.20800        3.71700       -3.98300
O          3.41900        4.38600       -4.64800
C          3.82700        3.11200       -2.61400
H          3.08400       -0.63600        2.09100
H          3.27600        1.11300        1.83900
H          4.54200        0.00700        1.34700
H          2.58800       -2.16400        0.01000
H          4.03300       -1.58100       -0.81600
H          2.47300       -1.40600       -1.59400
H          0.86000       -0.53500        0.93100
H          0.71600        0.15000       -0.70100
H          1.05800        1.20800        0.66100
H          6.89700        1.77500       -1.89900
H          6.43500        3.48000       -1.82300
H          6.25600        1.66900       -4.30500
H          7.44900        2.96200       -4.04900
H          5.68800        3.94800       -5.33800
H          2.87200        2.59100       -2.73100
H          3.69800        3.94100       -1.90900
