40
76058-33-8.pdb
C          1.45700        0.85400       -0.42700
C          2.64300        0.06300        0.11000
N          3.05900       -1.01300       -0.80000
C          2.10300       -2.08900       -1.12100
C          2.17700       -3.27900       -0.17200
C          4.41500       -1.38100       -0.77400
C          5.24300       -1.15700        0.33600
C          6.60300       -1.50200        0.32600
C          7.19000       -2.08600       -0.80200
C          6.36700       -2.32700       -1.90600
C          5.00600       -1.98500       -1.89200
N          8.55800       -2.42500       -0.91700
N          9.21400       -2.12900        0.10200
C         10.60800       -2.33600       -0.01500
C         11.24800       -2.26600       -1.27500
C         12.63300       -2.40100       -1.41400
C         13.41400       -2.60300       -0.28900
C         12.80800       -2.67800        0.96400
C         11.40800       -2.54700        1.12800
C         10.84900       -2.64100        2.53600
O          9.72300       -2.10400        2.79000
O         11.57900       -3.23800        3.39500
H          1.34300        1.78400        0.14200
H          0.52100        0.29700       -0.32600
H          1.59200        1.11600       -1.48100
H          2.41600       -0.33200        1.10700
H          3.45600        0.79400        0.21500
H          2.25700       -2.43500       -2.15000
H          1.07900       -1.70300       -1.10300
H          3.14800       -3.78300       -0.22300
H          1.41500       -4.01900       -0.44400
H          2.00300       -2.97800        0.86500
H          4.85200       -0.72400        1.25300
H          7.20200       -1.30900        1.21600
H          6.79500       -2.77600       -2.79800
H          4.42000       -2.16500       -2.78800
H         10.65400       -2.09100       -2.16700
H         13.08700       -2.34300       -2.39700
H         14.49100       -2.69900       -0.37200
H         13.42500       -2.83400        1.84900
