21
762-84-5.pdb
C          0.99300       -1.59700        0.12500
C          2.45800       -1.92200        0.01500
O          2.85600       -2.93200       -0.55300
N          3.27000       -0.98000        0.61000
C          4.74000       -1.05000        0.64900
C          5.32700       -1.02500       -0.77200
C          5.26600        0.18200        1.40900
C          5.20800       -2.30900        1.39600
H          0.40800       -2.38900       -0.35100
H          0.78200       -0.65100       -0.38000
H          0.70400       -1.53200        1.17800
H          2.82500       -0.17500        1.03100
H          5.00300       -0.12900       -1.31400
H          5.01500       -1.89200       -1.36100
H          6.42200       -1.02400       -0.74700
H          4.95800        1.11200        0.91800
H          6.36000        0.17900        1.46700
H          4.87600        0.21000        2.43400
H          4.89600       -3.22800        0.89000
H          4.79500       -2.33900        2.41000
H          6.30100       -2.33700        1.47700
