49
762-29-8.pdb
C          0.94600        1.69000       -0.04400
C          2.44600        1.75300       -0.03500
C          3.09400        2.74300        0.89300
C          3.16000        0.95000       -0.84500
C          4.66000        0.84800       -0.86200
C          5.32200        1.77300       -1.89000
C          6.84400        1.78500       -1.89200
C          7.62100        0.91700       -0.92900
C          7.50200        2.58600       -2.75800
C          9.00500        2.66400       -2.82100
C          9.54800        3.67500       -3.83400
C         11.06300        3.66000       -3.86400
C         11.77100        4.06500       -2.59300
C         11.75100        3.28700       -4.96300
C         13.25600        3.23900       -5.01700
C         13.81300        2.80900       -6.37100
C         15.33100        2.80400       -6.34900
C         16.03300        2.40400       -7.62000
O         15.98600        3.10800       -5.35100
H          0.50200        2.42200        0.63600
H          0.60600        0.69800        0.27800
H          0.55600        1.89000       -1.04700
H          2.35000        3.33800        1.43400
H          3.72100        3.44500        0.33600
H          3.70200        2.23300        1.64600
H          2.63900        0.26400       -1.51300
H          4.92400       -0.19600       -1.07600
H          5.04600        1.06400        0.14100
H          4.97700        2.80000       -1.71400
H          4.97300        1.49000       -2.89300
H          7.00100        0.29700       -0.28300
H          8.23100        1.54200       -0.26700
H          8.27400        0.23300       -1.47800
H          6.93600        3.21600       -3.44300
H          9.40200        1.67300       -3.06300
H          9.36800        2.93400       -1.81900
H          9.20600        4.68900       -3.58800
H          9.14300        3.44500       -4.82800
H         11.07100        4.37600       -1.81300
H         12.43600        4.91200       -2.77400
H         12.35600        3.22800       -2.19700
H         11.20600        2.99300       -5.85800
H         13.61600        2.54100       -4.25000
H         13.65200        4.23300       -4.77300
H         13.48300        3.49900       -7.15600
H         13.47000        1.79900       -6.62100
H         15.30700        2.16700       -8.40200
H         16.64600        1.52100       -7.42600
H         16.65900        3.23300       -7.95800
