22
7620-28-2.pdb
N          3.02100        0.69600       -1.08600
C          2.44900       -0.10200        0.02200
C          0.91400       -0.10200       -0.07400
C          0.40100       -0.63500       -1.41900
C         -1.12300       -0.61600       -1.49300
C         -1.62800       -1.19600       -2.79100
O         -1.30800       -0.46200       -3.87900
O         -2.28700       -2.22200       -2.86300
C          2.92900        0.47800        1.37000
O          2.57400       -0.25800        2.44600
O          3.59500        1.50000        1.47400
H          4.04100        0.67100       -0.99700
H          2.80400        1.68100       -0.90300
H          2.83800       -1.12300       -0.06300
H          0.49800       -0.72000        0.73200
H          0.53000        0.91200        0.09400
H          0.76600       -1.65700       -1.57600
H          0.80600       -0.03100       -2.23800
H         -1.52100        0.39800       -1.38500
H         -1.54400       -1.21400       -0.67600
H         -0.78500        0.33900       -3.68500
H          2.07800       -1.07500        2.24300
