28
764-93-2.pdb
C          1.03000       -0.06900        0.01000
C          2.54800       -0.07500        0.01000
C          3.07000       -1.50000        0.05900
C          4.59100       -1.51300        0.05900
C          5.10500       -2.94200        0.10800
C          6.62400       -2.95100        0.10800
C          7.13900       -4.37900        0.15700
C          8.65300       -4.38100        0.15900
C          9.16000       -5.81300        0.20600
C          9.59400       -7.04200        0.24600
H          0.66000        0.96200       -0.02600
H          0.63700       -0.54500        0.91600
H          0.63700       -0.60500       -0.86200
H          2.91500        0.49200        0.87400
H          2.91500        0.43200       -0.89100
H          2.69700       -2.06600       -0.80500
H          2.69700       -2.00500        0.95900
H          4.96800       -0.95300        0.92300
H          4.96800       -1.01300       -0.84200
H          4.73100       -3.50500       -0.75600
H          4.73100       -3.44500        1.00800
H          7.00100       -2.39000        0.97200
H          7.00100       -2.45000       -0.79200
H          6.76300       -4.94400       -0.70600
H          6.76100       -4.88500        1.05500
H          9.04400       -3.84000        1.02800
H          9.04600       -3.89700       -0.74300
H          9.94900       -8.04600        0.27900
