25
764-99-8.pdb
C          0.99200        1.59400        4.23500
C          2.32300        1.56100        4.15900
O          2.96600        0.66000        3.35800
C          4.38600        0.70700        3.51200
C          5.00800       -0.39300        2.65400
O          6.43300       -0.45900        2.72600
C          6.98300       -0.70900        4.02000
C          6.54400       -2.03200        4.64500
O          7.15400       -2.15300        5.93200
C          6.75100       -3.27400        6.60100
C          7.12900       -3.50500        7.85800
H          0.48600        2.31400        4.86700
H          0.38700        0.90000        3.66200
H          2.95100        2.24300        4.71600
H          4.64300        0.56100        4.56800
H          4.77300        1.68400        3.19700
H          4.74900       -0.21000        1.60500
H          4.57000       -1.37100        2.88600
H          6.77600        0.13300        4.69000
H          8.07300       -0.71700        3.90700
H          6.84700       -2.86400        3.99800
H          5.45400       -2.06100        4.75500
H          6.11600       -3.95800        6.05100
H          7.76800       -2.80300        8.38200
H          6.81100       -4.39900        8.38200
