22
7643-75-6.pdb
O          2.82100        2.44900       -1.65300
C          2.28000        2.48400       -0.32500
C          2.92200        1.38500        0.53600
O          2.46900        0.11700        0.03000
C          4.47200        1.39300        0.51900
O          4.96900        1.17500       -0.81200
C          5.06100        2.68000        1.11300
O          4.58000        2.86200        2.45000
C          6.59800        2.68300        1.09300
O          7.10500        3.85700        1.73300
H          2.22800        2.99300       -2.20500
H          1.20000        2.32200       -0.40100
H          2.46300        3.48000        0.08900
H          2.55100        1.46400        1.56200
H          2.90500        0.01000       -0.84000
H          4.81300        0.53200        1.10900
H          4.39200        1.69600       -1.41600
H          4.72500        3.55200        0.54100
H          5.20400        2.41300        3.05100
H          6.98600        2.65500        0.07000
H          6.99800        1.82600        1.64400
H          6.55400        4.60800        1.46000
