34
765-03-7.pdb
C          0.86100        0.02600        0.06300
C          2.37800        0.03100        0.05400
C          2.91300        0.82500       -1.13300
C          4.43900        0.83000       -1.14400
C          4.95500        1.62700       -2.33300
C          6.47600        1.63500       -2.34500
C          6.99100        2.43100       -3.53400
C          8.51000        2.43500       -3.54300
C          9.02800        3.23000       -4.72800
C         10.54400        3.23000       -4.73000
C         11.05000        4.03000       -5.91900
C         11.48500        4.71700       -6.93900
H          0.48700       -0.54600        0.91700
H          0.46800       -0.42900       -0.85200
H          0.46800        1.04500        0.13400
H          2.74700       -1.00000        0.00900
H          2.74700        0.46700        0.99100
H          2.54100        1.85600       -1.08600
H          2.53900        0.39000       -2.06800
H          4.81200       -0.19900       -1.19600
H          4.81400        1.26800       -0.21200
H          4.58000        2.65700       -2.28400
H          4.58000        1.19000       -3.26700
H          6.85300        0.60600       -2.39500
H          6.85300        2.07300       -1.41200
H          6.61600        3.46000       -3.48400
H          6.61400        1.99400       -4.46600
H          8.88500        1.40500       -3.59200
H          8.88600        2.87200       -2.60900
H          8.65200        4.26100       -4.68200
H          8.65000        2.79900       -5.66400
H         10.93400        2.20900       -4.80000
H         10.93600        3.67900       -3.81100
H         11.84000        5.27700       -7.77300
