16
765-70-8.pdb
C          1.03900       -0.03500        0.06000
C          2.55700       -0.08100        0.05600
C          3.11100       -1.30800        0.79200
C          4.45600       -0.93000        1.42000
C          4.39200        0.56100        1.53700
O          5.21400        1.28100        2.06800
C          3.16800        1.06600        0.81000
O          2.80300        2.22200        0.82000
H          0.62300       -0.89000       -0.48300
H          0.67300        0.88200       -0.41200
H          0.64200       -0.05400        1.08200
H          2.94200       -0.04800       -0.97100
H          3.22700       -2.15600        0.10800
H          2.42300       -1.63400        1.58200
H          5.29200       -1.21200        0.77500
H          4.56500       -1.38200        2.41000
