40
765-10-6.pdb
C          1.07100        0.02800        0.02900
C          2.58500        0.01900        0.02700
C          3.11100       -1.39100       -0.20200
C          4.63200       -1.40100       -0.20300
C          5.14600       -2.81300       -0.43200
C          6.66600       -2.82300       -0.43400
C          7.17500       -4.23300       -0.66300
C          8.69200       -4.24100       -0.66400
C          9.20300       -5.65300       -0.89300
C         10.72000       -5.65800       -0.89100
C         11.23600       -7.06700       -1.11800
C         12.75000       -7.06700       -1.11400
C         13.25600       -8.48100       -1.34300
C         13.69100       -9.69500       -1.54000
H          0.69400        1.04100        0.19300
H          0.67900       -0.61800        0.82300
H          0.67900       -0.33400       -0.92900
H          2.95500        0.40500        0.98400
H          2.95500        0.68800       -0.75900
H          2.73800       -1.77800       -1.15800
H          2.73800       -2.06000        0.58400
H          5.00900       -1.02000        0.75300
H          5.00900       -0.73700       -0.99000
H          4.77100       -3.19800       -1.38900
H          4.77100       -3.48100        0.35400
H          7.04100       -2.43900        0.52300
H          7.04100       -2.15700       -1.22000
H          6.80000       -4.61600       -1.62000
H          6.80000       -4.89900        0.12400
H          9.06900       -3.85900        0.29300
H          9.07000       -3.57600       -1.45000
H          8.82800       -6.03500       -1.85000
H          8.82600       -6.31900       -0.10700
H         11.09400       -5.27200        0.06500
H         11.09600       -4.99100       -1.67800
H         10.86200       -7.45500       -2.07400
H         10.85700       -7.73600       -0.33500
H         13.13900       -6.70400       -0.15600
H         13.14400       -6.41800       -1.90500
H         14.04600      -10.68600       -1.70100
