16
765-69-5.pdb
C          0.02700        2.00300       -0.46100
C         -0.00300        0.76300        0.40500
C         -1.17400       -0.13200        0.07600
O         -2.34700        0.21000        0.14900
C         -0.72900       -1.48600       -0.42100
C          0.72600       -1.59000        0.02000
C          1.16800       -0.15400        0.13900
O          2.33700        0.20300        0.09700
H         -0.84100        2.64000       -0.25700
H          0.00900        1.75000       -1.52700
H          0.93200        2.59000       -0.27400
H         -0.02600        0.99600        1.47400
H         -0.80500       -1.49500       -1.51200
H         -1.33900       -2.28500        0.00600
H          1.33300       -2.13600       -0.70500
H          0.80500       -2.05700        1.00600
