43
765-13-9.pdb
C          0.93600        0.02500       -0.07200
C          2.44700        0.03100       -0.07000
C          2.96500        1.39600        0.34000
C          4.47800        1.40600        0.34400
C          4.99200        2.77000        0.75400
C          6.50500        2.77900        0.75600
C          7.01900        4.14200        1.16600
C          8.53200        4.15200        1.16900
C          9.04600        5.51400        1.58100
C         10.55900        5.52400        1.58200
C         11.07300        6.88700        1.99600
C         12.58700        6.90000        1.99500
C         13.09500        8.26200        2.41200
C         14.61500        8.26400        2.40600
C         15.91900        8.26600        2.40100
H          0.56200       -0.95700       -0.36700
H          0.55400        0.77300       -0.77500
H          0.55400        0.26100        0.92700
H          2.81800       -0.22100       -1.07100
H          2.81800       -0.73100        0.62600
H          2.59100        1.64900        1.34200
H          2.59100        2.15900       -0.35500
H          4.85300        1.15500       -0.65800
H          4.85300        0.64400        1.04000
H          4.61800        3.02200        1.75500
H          4.61800        3.53200        0.05700
H          6.88000        2.52700       -0.24500
H          6.88000        2.01700        1.45300
H          6.64400        4.39400        2.16800
H          6.64400        4.90500        0.47000
H          8.90600        3.90100        0.16700
H          8.90600        3.38800        1.86400
H          8.67200        5.76400        2.58300
H          8.67000        6.27800        0.88700
H         10.93200        5.27600        0.57900
H         10.93500        4.76000        2.27500
H         10.70000        7.13400        2.99900
H         10.69500        7.65100        1.30300
H         12.96000        6.65100        0.99300
H         12.96500        6.13300        2.68500
H         12.74100        8.50900        3.41800
H         12.73400        9.03100        1.71900
H         16.98500        8.26700        2.39600
