18
7651-83-4.pdb
O          1.04800        0.03900        0.17100
C          2.40800       -0.04200        0.11600
C          3.06000       -1.26900        0.09600
C          4.45500       -1.30600        0.01500
C          5.20100       -0.11700       -0.05200
C          6.59600       -0.12400       -0.16100
C          7.26600        1.08800       -0.23400
N          6.65500        2.29000       -0.19500
C          5.30500        2.27800       -0.08500
C          4.52600        1.12100       -0.01800
C          3.12500        1.14900        0.07100
H          0.68000       -0.85800        0.11100
H          2.50600       -2.20200        0.14000
H          4.95700       -2.27200       -0.00100
H          7.15800       -1.05100       -0.19700
H          8.34700        1.12300       -0.33100
H          4.84900        3.26400       -0.05800
H          2.58800        2.09400        0.09400
