14
766-55-2.pdb
C          2.01100        0.90600       -0.00900
C          2.02700       -0.57800       -0.01800
N          0.99300       -1.35900       -0.01800
N         -0.18200       -0.66700       -0.01000
C         -1.43100       -1.22300       -0.01500
C         -2.30500       -0.16100       -0.00900
N         -1.63100        1.03500        0.00300
C         -0.35500        0.70800        0.00100
C          0.81300        1.50400        0.00300
H          2.94800        1.44400       -0.01200
H          3.03300       -1.03100       -0.02600
H         -1.57400       -2.29200       -0.02400
H         -3.38700       -0.19500       -0.01400
H          0.70800        2.58300        0.01200
