15
766-39-2.pdb
C          1.09000        0.21100        0.02800
C          2.56100        0.04300       -0.00100
C          3.31300       -1.05100       -0.08400
C          2.94300       -2.48200       -0.17500
C          4.71000       -0.61900       -0.07200
O          5.67800       -1.35500       -0.13300
O          4.73000        0.72500        0.01700
C          3.46500        1.18900        0.06400
O          3.12700        2.35500        0.14500
H          0.56700       -0.74700       -0.04000
H          0.75800        0.83000       -0.81100
H          0.77800        0.69300        0.96000
H          1.85900       -2.62400       -0.18000
H          3.34700       -3.03800        0.67600
H          3.33900       -2.92200       -1.09600
