36
76649-16-6.pdb
C          0.96300       -0.50800        2.65500
C          2.48300       -0.49700        2.68500
C          3.03300        0.85500        2.23700
C          4.56100        0.87700        2.26300
C          5.09100        2.23900        1.81000
C          6.59100        2.26800        1.82700
C          7.31300        3.11400        2.57600
C          8.81300        3.10400        2.60900
C          9.39900        4.43300        2.14600
C         10.89700        4.41300        2.29700
O         11.55400        3.47100        2.71100
O         11.39800        5.64400        1.98500
C         12.72300        5.89100        2.47100
C         12.60200        6.44400        3.88000
H          0.58400       -1.48100        2.97800
H          0.59000       -0.31400        1.64400
H          0.55400        0.25600        3.32400
H          2.86300       -1.29100        2.03100
H          2.82300       -0.72200        3.70200
H          2.64500        1.64400        2.89200
H          2.68100        1.07600        1.22200
H          4.95200        0.08700        1.60900
H          4.91600        0.65800        3.27800
H          4.68100        3.02700        2.45300
H          4.75200        2.45000        0.78900
H          7.09600        1.54600        1.18800
H          6.81200        3.83000        3.22200
H          9.21200        2.29100        1.98900
H          9.12900        2.89300        3.63800
H          9.01000        5.24700        2.76900
H          9.14300        4.63100        1.09900
H         13.18900        6.63000        1.81200
H         13.34800        4.99100        2.44500
H         12.01000        7.36500        3.87300
H         13.58400        6.65500        4.31000
H         12.07500        5.73900        4.53200
