22
76788-46-0.pdb
C          2.17400        1.58700       -0.00900
C          2.53400        0.10600       -0.03000
C          3.07500       -0.39300        1.31400
S          3.51900       -2.14600        1.15700
C          2.05200       -2.65000        2.08600
C          2.41500       -3.71600        3.10300
C          1.55800       -1.35200        2.71100
N          2.04600       -0.20400        2.35200
C          0.45300       -1.37800        3.72900
H          1.77600        1.88700       -0.98400
H          3.05300        2.20300        0.20700
H          1.40600        1.80400        0.74100
H          3.28500       -0.04900       -0.81500
H          1.64000       -0.45900       -0.31700
H          3.97500        0.16600        1.59700
H          1.28900       -3.01500        1.39100
H          3.07700       -3.33000        3.88600
H          2.89900       -4.57600        2.62600
H          1.51600       -4.09500        3.60100
H          0.01900       -2.37600        3.82000
H         -0.33500       -0.68300        3.42700
H          0.85100       -1.06700        4.69900
