28
768-94-5.pdb
N          0.92300       -0.07100       -0.06200
C          2.38400       -0.06400       -0.05200
C          2.91000        0.81200        1.10700
C          4.45000        0.81500        1.11100
C          4.95900       -0.62600        1.28400
C          4.45200       -1.50700        0.12900
C          4.96000       -0.93500       -1.20500
C          4.45200        0.50500       -1.39100
C          4.95900        1.37500       -0.22800
C          2.91200        0.50200       -1.38800
C          2.91200       -1.50400        0.12800
H          0.57200        0.88100       -0.15300
H          0.57200       -0.41800        0.83000
H          2.54200        0.43600        2.07100
H          2.54200        1.84200        1.00900
H          4.81600        1.43800        1.93500
H          4.61600       -1.03200        2.24300
H          6.05600       -0.63500        1.30700
H          4.81900       -2.53100        0.25700
H          4.61800       -1.56400       -2.03700
H          6.05700       -0.95000       -1.22500
H          4.81900        0.90700       -2.34200
H          4.61600        2.40900       -0.35700
H          6.05500        1.40000       -0.23100
H          2.54500       -0.09800       -2.23200
H          2.54400        1.52500       -1.54500
H          2.54400       -1.93400        1.06900
H          2.54500       -2.15100       -0.68000
