22
768-59-2.pdb
C          1.27100        0.77100       -0.69800
C          2.44100        0.04600       -0.05000
C          2.91600       -1.12000       -0.87900
C          3.89600       -0.94200       -1.86300
C          4.31700       -2.01500       -2.65400
C          3.76200       -3.28900       -2.47700
C          4.17200       -4.43800       -3.36000
O          4.72700       -5.49500       -2.59200
C          2.78800       -3.46900       -1.48900
C          2.36500       -2.39600       -0.69800
H          0.97100        1.62800       -0.08700
H          0.40300        0.11000       -0.80200
H          1.53200        1.14100       -1.69600
H          2.15100       -0.30400        0.94800
H          3.26900        0.74700        0.10300
H          4.33300        0.04100       -2.02700
H          5.07200       -1.84300       -3.41600
H          4.92500       -4.12800       -4.09300
H          3.30600       -4.81700       -3.91200
H          5.32000       -5.08500       -1.93700
H          2.34400       -4.45100       -1.33500
H          1.59800       -2.56000        0.05400
