27
768-95-6.pdb
O          1.03400       -0.01700       -0.08900
C          2.45400       -0.00200       -0.09000
C          2.97200        0.87100        1.06700
C          4.50900        0.87600        1.07400
C          5.01900       -0.56600        1.24500
C          4.51000       -1.44800        0.09000
C          5.01900       -0.87500       -1.24500
C          4.51000        0.56500       -1.43200
C          5.01800        1.43500       -0.26800
C          2.97300        0.56100       -1.42500
C          2.97200       -1.43900        0.08900
H          0.72500        0.89900       -0.20200
H          2.58500        0.49600        2.02400
H          2.58600        1.89400        0.97200
H          4.87500        1.49900        1.89800
H          4.67700       -0.97300        2.20400
H          6.11500       -0.57500        1.26700
H          4.87500       -2.47300        0.21700
H          4.67800       -1.50400       -2.07600
H          6.11600       -0.89000       -1.26400
H          4.87600        0.96700       -2.38300
H          4.67600        2.46900       -0.39600
H          6.11500        1.46000       -0.27000
H          2.58600       -0.03500       -2.26200
H          2.58700        1.57700       -1.58300
H          2.58600       -1.86700        1.02300
H          2.58600       -2.08200       -0.71300
