35
76824-35-6.pdb
N          3.63400       -1.08100        5.13400
C          4.28800       -0.64900        4.02900
N          4.41900        0.70400        4.04100
N          4.64300       -1.49600        3.12000
C          5.28700       -1.00700        2.02900
S          5.06200       -1.80100        0.51200
C          6.08700       -0.65900       -0.24500
C          6.56300        0.24300        0.68700
C          7.49800        1.38100        0.43200
S          6.56500        2.90700        0.08400
C          7.96500        4.02000       -0.27700
C          7.50400        5.44100       -0.59000
C          6.74800        5.55900       -1.91300
N          5.38700        5.43000       -1.84100
N          7.46500        5.78800       -2.96400
S          6.79200        5.88000       -4.42500
N          7.79800        6.89500       -5.29700
O          6.89100        4.59200       -5.07000
O          5.53100        6.58800       -4.34100
N          6.10900        0.02800        1.98000
H          3.79000       -0.57200        5.99100
H          3.68000       -2.08700        5.24500
H          4.64300        1.12300        4.93100
H          5.05500        1.03100        3.31100
H          6.28500       -0.70000       -1.30600
H          8.15600        1.14800       -0.41200
H          8.12200        1.54500        1.31800
H          8.54700        3.61100       -1.10900
H          8.60400        4.04700        0.61200
H          8.38900        6.08800       -0.65500
H          6.88500        5.84100        0.22200
H          4.92800        5.41200       -0.93700
H          4.82400        5.82300       -2.59800
H          8.73800        6.50900       -5.33000
H          7.74100        7.84300       -4.93500
