17
7685-44-1.pdb
N          3.00000        1.38800       -0.12300
C          2.45800       -0.00600        0.15500
C          0.93200        0.01600        0.11400
C          0.40000        0.50600       -1.21100
C         -0.35400        1.60200       -1.36100
C          3.04700       -0.50300        1.50500
O          2.41800       -1.38300        2.12900
O          4.09800        0.16200        1.77800
H          3.97900        1.31300        0.22300
H          2.57000        2.05300        0.52600
H          2.94100        1.68900       -1.09400
H          2.86700       -0.64000       -0.64000
H          0.54200       -0.99600        0.27900
H          0.54400        0.63100        0.93700
H          0.62200       -0.10500       -2.08600
H         -0.64500        2.22300       -0.52000
H         -0.73600        1.88500       -2.34000
