19
769-28-8.pdb
C         -3.54100        0.03700        0.01100
C         -2.04500        0.10900       -0.00200
C         -1.35700        1.26100        0.00000
C          0.09900        1.26200       -0.00500
C          0.77800        0.09300       -0.00500
C          2.19800        0.02800       -0.00400
N          3.35900        0.04300       -0.00200
C          0.01300       -1.19000       -0.00900
O          0.56000       -2.28800       -0.01000
N         -1.35900       -1.08100       -0.01100
C          0.77200        2.60900       -0.00800
H         -3.99500        1.03400        0.01700
H         -3.89000       -0.49400        0.90200
H         -3.90800       -0.49200       -0.87500
H         -1.88000        2.21300        0.01100
H         -1.86200       -1.96100       -0.01500
H          0.05100        3.43400       -0.01100
H          1.39600        2.72600       -0.90100
H          1.39700        2.73000        0.88300
