26
769-92-6.pdb
C          0.98800        0.05100        0.15400
C          2.52400       -0.06700        0.06300
C          3.06900        1.31500       -0.35600
C          3.03900       -0.40100        1.48200
C          3.00500       -1.14900       -0.92000
C          2.11700       -1.94300       -1.66400
C          2.57900       -2.97400       -2.49300
C          3.94100       -3.21800       -2.64500
N          4.38300       -4.35100       -3.33800
C          4.83400       -2.45600       -1.89600
C          4.37700       -1.42200       -1.06800
H          0.69200        0.82200        0.87600
H          0.53000       -0.89000        0.48300
H          0.54700        0.32600       -0.81100
H          2.73400        2.09500        0.33800
H          2.72000        1.59000       -1.35700
H          4.16300        1.34400       -0.36700
H          2.68300        0.33100        2.21500
H          4.13400       -0.40200        1.53800
H          2.69300       -1.39100        1.80400
H          1.04100       -1.80400       -1.60000
H          1.85200       -3.59500       -3.01000
H          3.75100       -4.65600       -4.07100
H          5.34500       -4.29200       -3.65300
H          5.89900       -2.66500       -1.93600
H          5.11700       -0.85100       -0.51200
