29
76985-09-6.pdb
N          2.13200        1.58300       -1.51200
C          1.19300        0.39000       -1.38500
C          0.97600        0.03400        0.08600
C          0.36700        1.18200        0.86500
C          1.18000        2.09400        1.54700
C          0.61700        3.20300        2.18200
C         -0.76900        3.41900        2.16400
C         -1.34300        4.54000        2.78500
C         -2.72500        4.73000        2.77400
C         -3.55000        3.79600        2.15400
C         -2.99400        2.67800        1.53000
C         -1.60400        2.48000        1.51600
C         -1.02300        1.37400        0.87000
C          1.76900       -0.78400       -2.22300
O          1.38100       -1.93900       -1.95000
O          2.62300       -0.33900       -3.05400
H          2.37500        1.57200       -2.52200
H          3.02500        1.35100       -1.06800
H          1.74400        2.47400       -1.20600
H          0.25900        0.71300       -1.86000
H          0.31100       -0.83600        0.17200
H          1.92000       -0.27200        0.55300
H          2.25700        1.95100        1.59600
H          1.27200        3.90300        2.69900
H         -0.71600        5.27700        3.28100
H         -3.15700        5.60400        3.25500
H         -4.62800        3.93700        2.15600
H         -3.65800        1.95900        1.05500
H         -1.66600        0.65400        0.36500
