35
77-25-8.pdb
C          4.19100        0.44700        2.21500
C          5.08100        0.26800        1.00400
O          5.02700       -1.08200        0.51500
C          4.49100       -1.21700       -0.73300
O          3.69900       -0.41600       -1.21700
C          5.00500       -2.46400       -1.45300
C          4.53000       -3.73200       -0.68400
C          3.01700       -3.88700       -0.56700
C          4.48700       -2.48500       -2.91900
C          4.94800       -1.32900       -3.81000
C          6.53400       -2.46600       -1.46900
O          7.22300       -1.53700       -1.05300
O          7.05200       -3.58900       -2.03500
C          8.49600       -3.63900       -2.05400
C          9.04300       -2.81800       -3.20800
H          4.30900        1.45600        2.62400
H          4.43800       -0.27900        2.99600
H          3.13900        0.29900        1.95200
H          6.12300        0.45500        1.28100
H          4.82200        1.00500        0.23600
H          4.95600       -3.73600        0.32800
H          4.91900       -4.63500       -1.17200
H          2.56800       -3.04700       -0.03000
H          2.77800       -4.80200       -0.01600
H          2.54100       -3.96800       -1.54800
H          3.38900       -2.47000       -2.92200
H          4.78500       -3.42100       -3.40800
H          4.68800       -0.35000       -3.39800
H          4.45400       -1.40300       -4.78500
H          6.02700       -1.35200       -3.97700
H          8.78600       -4.68800       -2.17200
H          8.90300       -3.30200       -1.09600
H          8.67500       -3.20200       -4.16500
H         10.13700       -2.84100       -3.21200
H          8.72100       -1.77400       -3.14300
