42
77-53-2.pdb
C          3.24400        0.13400       -1.54400
C          2.46000        0.15500       -0.23800
C          2.72100        1.25200        0.76400
C          2.12100        0.71800        2.09200
C          2.16000       -0.83400        2.05400
C          0.98500       -1.84800        2.31100
C         -0.40200       -1.15000        2.14600
C          0.87000       -2.54700        3.67900
C          1.28100       -2.96300        1.20200
C          1.52000       -2.09000       -0.00300
C          2.58700       -1.13700        0.57500
C          3.98500       -1.80700        0.67700
C          3.84700       -3.31900        0.56000
C          2.57500       -3.89600        1.25500
C          2.25000       -5.20800        0.52300
O          2.92800       -4.27200        2.58000
H          2.93100        0.95000       -2.21000
H          3.04300       -0.79900       -2.08000
H          4.32600        0.20500       -1.39900
H          1.41000        0.29300       -0.53700
H          2.21700        2.17400        0.45900
H          3.79200        1.47600        0.85400
H          1.12800        1.14100        2.25600
H          2.75300        1.09400        2.90600
H          2.93200       -1.10900        2.78500
H         -1.19500       -1.69500        2.66700
H         -0.72800       -1.04700        1.11100
H         -0.40100       -0.15100        2.59500
H          0.49300       -1.89400        4.46600
H          1.80000       -2.99100        4.05500
H          0.14800       -3.37700        3.58900
H          0.38000       -3.57600        1.07400
H          1.86000       -2.62000       -0.89700
H          0.60300       -1.58300       -0.30900
H          4.48600       -1.57300        1.62400
H          4.67800       -1.44900       -0.08600
H          4.75400       -3.79800        0.93300
H          3.81600       -3.54200       -0.52200
H          1.88300       -5.03500       -0.48300
H          1.49900       -5.76500        1.07600
H          3.13800       -5.85400        0.44200
H          3.46300       -3.55600        2.95500
