28
77-55-4.pdb
O          1.66400       -0.98400        0.25200
C          2.60000       -0.07400       -0.10300
O          2.91400        0.04700       -1.28600
C          3.21300        0.77100        1.02500
C          2.97400        2.27900        0.73100
C          4.14100        3.03100        1.38200
C          5.24600        2.00300        1.58900
C          4.76000        0.75000        0.86800
C          2.74600        0.35900        2.43700
C          3.41800       -0.63600        3.16800
C          3.05000       -0.94500        4.48000
C          1.97300       -0.30000        5.07500
C          1.23100        0.61700        4.34100
C          1.60500        0.93300        3.03100
H          1.47500       -1.03900        1.20700
H          2.01500        2.67900        1.06700
H          3.00200        2.47000       -0.35000
H          3.84500        3.46700        2.34300
H          4.47400        3.85200        0.73900
H          5.37900        1.80700        2.65900
H          6.20700        2.34900        1.19600
H          5.25600       -0.15100        1.23500
H          5.04400        0.83400       -0.19000
H          4.25200       -1.18900        2.74100
H          3.61700       -1.68400        5.04200
H          1.70500       -0.51700        6.10600
H          0.36600        1.10000        4.78800
H          0.98000        1.64400        2.49800
