17
77-71-4.pdb
C          0.97300        0.07100        0.13700
C          2.47900        0.06600       -0.06800
C          2.86800        0.15700       -1.54200
N          3.11600       -1.07500        0.55400
C          4.16600       -0.70600        1.36000
O          4.92000       -1.47500        1.92600
N          4.20200        0.64600        1.42600
C          3.17800        1.19000        0.71300
O          2.90800        2.38100        0.66800
H          0.50500       -0.78300       -0.36500
H          0.52300        0.98800       -0.26000
H          0.71300        0.01200        1.20000
H          2.49000       -0.70400       -2.10200
H          3.95800        0.17800       -1.66700
H          2.47000        1.06900       -1.99800
H          2.94700       -2.04800        0.33500
H          4.84100        1.16400        2.00200
