20
77-85-0.pdb
C          0.90200        0.02900        0.08200
C          2.44300        0.03100        0.05000
C          2.94800       -1.22100       -0.70100
O          2.50200       -2.43400       -0.10700
C          2.95400        1.27600       -0.70400
O          2.55400        2.48200       -0.06500
C          2.99200        0.05300        1.49400
O          2.60300       -1.11600        2.21900
H          0.49100        0.05900       -0.93300
H          0.51100        0.89600        0.62500
H          0.50200       -0.86700        0.57000
H          4.04400       -1.24500       -0.73300
H          2.59100       -1.21900       -1.73800
H          2.70900       -2.36600        0.85100
H          2.59300        1.29700       -1.73800
H          4.04900        1.27800       -0.74200
H          1.64100        2.67600       -0.34400
H          2.65100        0.93000        2.05200
H          4.08800        0.07300        1.48500
H          1.70500       -0.95100        2.56100
