39
77-93-0.pdb
C          1.44700       -0.67700        0.59600
C          2.23300        0.53000        0.12500
O          2.92200        1.16700        1.20900
C          4.27600        1.03000        1.24000
O          4.92700        0.22700        0.58800
C          4.86300        2.03800        2.19200
C          6.39700        2.15300        2.09700
O          6.96800        0.87200        2.46000
C          6.95400        2.55600        0.71900
C          6.53300        3.93600        0.29500
O          5.79900        4.67200        0.94000
O          7.04500        4.22100       -0.93400
C          6.70200        5.51700       -1.45700
C          5.31600        5.48900       -2.07600
C          6.95700        3.13300        3.15200
O          8.04300        3.69600        3.06300
O          6.15000        3.18000        4.25100
C          6.76300        3.66000        5.45300
C          7.43200        2.48100        6.13700
H          0.83400       -1.07000       -0.22100
H          0.78900       -0.41800        1.43300
H          2.11500       -1.47200        0.94200
H          1.54000        1.27700       -0.27300
H          2.91300        0.25500       -0.69000
H          4.56600        1.70600        3.19400
H          4.38900        3.00700        2.00200
H          6.70500        0.22500        1.77500
H          6.64700        1.84300       -0.05300
H          8.05300        2.52700        0.74100
H          7.44300        5.75900       -2.22600
H          6.78100        6.28700       -0.68000
H          5.25400        4.70900       -2.84000
H          5.07700        6.45500       -2.53100
H          4.55200        5.26100       -1.32700
H          5.96700        4.05900        6.09000
H          7.47000        4.47400        5.26100
H          6.69800        1.69000        6.33000
H          7.89200        2.77800        7.08100
H          8.19900        2.04100        5.49100
