44
77086-22-7.pdb
C          1.24700        0.35400        1.78600
C          2.80100        0.31100        1.85800
N          3.67000        0.19200        3.08500
C          4.99800       -0.23200        2.40700
C          5.60800        0.79500        1.39700
C          4.68300        1.97500        1.23900
C          5.21600        3.28200        1.21700
C          4.43000        4.37700        1.58000
C          3.11500        4.17200        1.94800
C          2.57800        2.88500        1.89000
C          3.31300        1.74100        1.45900
C          4.50600       -1.41700        1.62500
C          5.02500       -2.71600        1.68400
C          4.14300       -3.78700        1.56800
C          2.78300       -3.54500        1.38700
C          2.30700       -2.23300        1.24600
C          3.17600       -1.12200        1.30700
O          2.19500        0.24100       -2.10600
C          1.83400       -1.06000       -2.11500
O          0.66100       -1.39900       -2.17800
C          2.88100       -2.07700       -1.95900
C          4.21900       -2.05600       -1.90100
C          5.06600       -0.87500       -2.05700
O          6.33800       -1.08100       -1.68100
O          4.65500        0.20300       -2.47600
H          0.80000        1.31900        1.52300
H          0.76600       -0.03100        2.66800
H          0.89200       -0.20300        0.89600
H          3.34300       -0.59900        3.63500
H          5.73700       -0.53400        3.15700
H          5.79400        0.37100        0.40300
H          6.57400        1.14000        1.78400
H          6.28000        3.44300        1.05800
H          4.86600        5.36700        1.67500
H          2.51800        4.98200        2.36400
H          1.60300        2.78700        2.36100
H          6.05000       -2.89800        1.99700
H          4.48300       -4.80500        1.74600
H          2.06900       -4.36500        1.45100
H          1.22400       -2.12300        1.25400
H          3.15600        0.43400       -2.18700
H          2.41100       -3.05600       -1.81400
H          4.72900       -2.99200       -1.69800
H          6.50500       -1.92400       -1.22500
