19
771-50-6.pdb
O          1.08800       -0.07300       -0.07300
C          2.44000       -0.13000        0.04800
O          3.02000        0.36100        1.00500
C          3.11200       -0.85600       -1.02200
C          4.28100       -1.57500       -0.84500
N          4.63800       -2.13000       -2.04200
C          3.74800       -1.75700       -3.02100
C          3.74800       -2.05000       -4.39000
C          2.72600       -1.50700       -5.17100
C          1.74000       -0.70600       -4.60400
C          1.75400       -0.42200       -3.23300
C          2.77300       -0.95900       -2.41500
H          0.77500       -0.65400       -0.79000
H          4.88000       -1.73600        0.04300
H          5.45400       -2.70700       -2.19700
H          4.52400       -2.66200       -4.83900
H          2.71000       -1.70200       -6.24200
H          0.96100       -0.28200       -5.23300
H          0.99200        0.23800       -2.82700
