27
771-99-3.pdb
C          0.82700        1.22700       -0.00500
C         -0.68100        1.27500        0.25100
C         -1.42200        0.04200       -0.30100
C         -0.71800       -1.21400        0.24900
C          0.78200       -1.21100       -0.03800
N          1.44600       -0.01000        0.46500
C         -1.61800       -0.00300       -1.81500
C         -1.21300        1.02900       -2.67600
C         -1.38500        0.93600       -4.05500
C         -1.99700       -0.18700       -4.60800
C         -2.45300       -1.20300       -3.77500
C         -2.27300       -1.10800       -2.39300
H          1.29400        2.06400        0.52500
H          1.05600        1.37300       -1.06600
H         -1.10400        2.20500       -0.14700
H         -0.84400        1.32100        1.33700
H         -2.43700        0.06900        0.12200
H         -1.15500       -2.13800       -0.14500
H         -0.86900       -1.25500        1.33600
H          0.97100       -1.33900       -1.11000
H          1.23100       -2.07700        0.46500
H          2.42000       -0.02500        0.15900
H         -0.74800        1.93500       -2.30100
H         -1.04600        1.74100       -4.70000
H         -2.13600       -0.26100       -5.68200
H         -2.94400       -2.07200       -4.20200
H         -2.65500       -1.91400       -1.77000
