37
77119-85-8.pdb
C          7.81700        6.17800       -0.91900
C          7.32900        4.94200       -1.68600
C          5.92400        5.14400       -2.26600
C          8.29700        4.68900       -2.85500
O          7.38900        3.75200       -0.85100
C          6.65000        3.68300        0.28100
O          5.86800        4.53000        0.68900
N          6.90700        2.51800        0.93600
C          6.23900        2.13600        2.17500
C          4.70900        2.00500        2.11000
C          4.24100        0.94300        1.14500
C          4.14600       -0.39700        1.54200
C          3.75200       -1.37600        0.62800
C          3.45000       -1.02400       -0.68700
C          3.52600        0.30800       -1.08500
C          3.91700        1.28800       -0.17300
C          6.62800        3.11900        3.27300
O          7.71900        3.10800        3.83900
H          7.95000        7.03600       -1.58700
H          8.77200        5.97400       -0.42100
H          7.11200        6.48100       -0.14000
H          5.90000        5.98600       -2.96600
H          5.18000        5.34100       -1.49000
H          5.59100        4.24300       -2.79400
H          8.37700        5.56700       -3.50800
H          7.96400        3.84200       -3.46600
H          9.29900        4.43800       -2.49100
H          7.56900        1.89100        0.50100
H          6.67100        1.16800        2.45800
H          4.32500        1.76100        3.11100
H          4.23500        2.96200        1.85800
H          4.37400       -0.69200        2.56400
H          3.68100       -2.41500        0.94000
H          3.15200       -1.78800       -1.40000
H          3.28200        0.58600       -2.10700
H          3.97100        2.32600       -0.49900
H          5.90800        3.93400        3.46600
