22
774-07-2.pdb
C          6.57500        0.54500        1.13300
C          5.72200       -0.42700        0.33700
O          5.54200        0.11900       -0.97700
C          4.54600        1.03300       -1.08900
O          3.63000        1.19700       -0.29300
C          4.80100        1.89500       -2.25600
C          4.30100        3.14400       -2.33500
N          3.50900        3.74400       -1.38300
N          4.61300        3.89200       -3.43700
C          5.41600        3.48100       -4.47400
S          5.66200        4.54400       -5.74300
N          5.97200        2.23100       -4.40600
C          5.68800        1.51000       -3.37000
H          6.80700        0.15000        2.12600
H          6.06600        1.50700        1.24700
H          7.51200        0.75000        0.60200
H          4.76400       -0.62800        0.83100
H          6.24300       -1.38300        0.22700
H          3.10100        3.07900       -0.71600
H          2.81000        4.37200       -1.76300
H          4.27300        4.84200       -3.49100
H          6.14900        0.51100       -3.30200
