27
775-16-6.pdb
O          4.52800        3.34400        2.26800
C          4.37900        2.42900        1.47400
C          3.28000        2.36500        0.45800
C          3.28700        0.88800        0.10100
N          4.73300        0.44200        0.18300
C          5.30100        1.23600        1.35200
C          5.48400        0.62100       -1.11800
C          6.90400        0.12500       -1.07900
C          7.20100       -1.21300       -0.77700
C          8.52600       -1.65500       -0.75400
C          9.56400       -0.77200       -1.04200
C          9.28100        0.55400       -1.35900
C          7.96000        1.00100       -1.37800
H          3.55200        2.98800       -0.39900
H          2.32200        2.68100        0.87500
H          2.88900        0.66900       -0.89400
H          2.74400        0.29700        0.84800
H          4.77200       -0.55900        0.41700
H          6.32800        1.53600        1.14300
H          5.21800        0.60300        2.24000
H          5.44000        1.68700       -1.37000
H          4.93100        0.06500       -1.88400
H          6.41800       -1.94100       -0.57600
H          8.75600       -2.69400       -0.52400
H         10.59500       -1.12100       -1.03500
H         10.09500        1.23600       -1.60100
H          7.77500        2.04200       -1.64200
