25
776-41-0.pdb
C          6.22400        1.02200        0.44100
C          5.25400       -0.09600        0.78500
O          5.25600       -1.03300       -0.29700
C          4.43100       -0.72100       -1.34200
O          3.49200        0.06200       -1.26700
C          4.88000       -1.33500       -2.58400
C          5.97000       -2.18200       -2.71800
N          6.12700       -2.47700       -4.04400
C          5.16800       -1.83800       -4.79200
C          4.97100       -1.82200       -6.17600
C          3.90500       -1.06500       -6.67000
C          3.06800       -0.35800       -5.81200
C          3.28200       -0.38100       -4.42900
C          4.35600       -1.13000       -3.90200
H          6.31300        1.73700        1.26200
H          5.89900        1.55600       -0.45900
H          7.21400        0.61000        0.21700
H          4.25000        0.28700        0.99800
H          5.60000       -0.62700        1.67800
H          6.65800       -2.57300       -1.98100
H          6.85900       -3.05700       -4.42900
H          5.62400       -2.36800       -6.84900
H          3.72900       -1.02700       -7.74300
H          2.24400        0.22500       -6.21600
H          2.62800        0.18300       -3.76900
