29
776-75-0.pdb
O          1.40700        0.87400        0.02100
C          2.39900        0.15700       -0.12000
N          3.01300       -0.03600       -1.36300
C          4.12200       -0.93400       -1.68500
C          5.34900       -0.10300       -2.06700
C          5.02400        0.83900       -3.22800
C          3.76400        1.66500       -2.94700
C          2.59600        0.79300       -2.49200
C          2.92400       -0.50800        1.11000
C          2.00400       -0.97300        2.06000
C          2.45300       -1.61500        3.21800
C          3.81800       -1.80200        3.42900
C          4.73800       -1.29300        2.51600
C          4.28800       -0.61000        1.38500
H          3.81000       -1.55100       -2.53700
H          4.34000       -1.63400       -0.87700
H          6.18200       -0.76100       -2.33700
H          5.67800        0.50400       -1.21600
H          4.87500        0.25000       -4.13900
H          5.87300        1.50800       -3.41200
H          3.48400        2.22800       -3.84500
H          3.99000        2.40300       -2.16400
H          2.28200        0.12200       -3.30100
H          1.73700        1.42300       -2.23800
H          0.93600       -0.83100        1.90400
H          1.73700       -1.96900        3.95500
H          4.16800       -2.32500        4.31500
H          5.80400       -1.41600        2.68500
H          5.02400       -0.16200        0.73000
