29
77644-45-2.pdb
N          1.02000        2.61100        1.43200
N          2.40800        2.43500        1.29800
C          2.96100        1.25600        0.84400
S          2.13300       -0.14400        0.45500
N          4.32500        1.23500        0.76500
C          5.24700        2.29600        1.17000
C          6.70200        1.87700        0.94600
N          7.71700        2.88500        1.30400
C          7.60700        4.15400        0.55400
C          7.92300        4.01600       -0.94400
O          9.22800        3.46100       -1.15500
C          9.38700        2.21100       -0.47500
C          9.07600        2.34100        1.03000
H          0.84700        3.23100        2.22300
H          0.61700        1.70500        1.70500
H          2.97600        3.26900        1.23500
H          4.70700        0.33500        0.48700
H          5.05700        2.53000        2.21800
H          4.99400        3.17000        0.56500
H          6.80000        1.55500       -0.09500
H          6.88000        0.98300        1.55700
H          8.32800        4.85800        0.99200
H          6.62700        4.61800        0.70200
H          7.91000        5.00400       -1.41400
H          7.17600        3.40100       -1.45900
H         10.42700        1.89200       -0.60600
H          8.76000        1.45400       -0.96000
H          9.80600        3.02400        1.48000
H          9.21000        1.37500        1.53400
