27
7764-95-6.pdb
C          1.65700        0.63900        0.25000
C          3.01400       -0.02500        0.04900
N          3.07300       -0.74600       -1.23400
C          2.59300       -2.00500       -1.37800
O          1.84300       -2.55400       -0.57900
O          3.09100       -2.58600       -2.50300
C          2.79700       -3.98300       -2.75700
C          1.29700       -4.20300       -2.99800
C          3.54400       -4.34400       -4.05200
C          3.34400       -4.88200       -1.63700
C          4.13500        1.05000        0.19200
O          4.21400        1.62300        1.31600
O          4.86100        1.19000       -0.84100
H          0.84300       -0.08900        0.17200
H          1.48100        1.41600       -0.50200
H          1.58800        1.10700        1.23800
H          3.17000       -0.76700        0.84200
H          3.81600       -0.42300       -1.84700
H          0.94400       -3.57300       -3.82200
H          0.68900       -3.94100       -2.12800
H          1.08300       -5.24800       -3.24500
H          3.21900       -3.71100       -4.88500
H          3.38000       -5.39200       -4.33000
H          4.62300       -4.18500       -3.94100
H          2.85800       -4.69900       -0.67600
H          4.41400       -4.69700       -1.48400
H          3.20600       -5.94200       -1.87400
