6
7782-99-2.pdb
O          1.04100        0.03800        0.47400
S          2.59800        0.13000        0.13500
O          3.07900       -0.00400        1.65600
O          2.97300       -1.13200       -0.58300
H          0.54500        0.58900       -0.16900
H          3.27900        0.89100        2.00400
