21
7782-26-5.pdb
C          1.14200       -0.40900       -0.24400
C          2.63600       -0.11200       -0.05600
C          3.42600       -1.41200       -0.12500
O          3.26700       -2.11500       -1.27300
O          4.14700       -1.81500        0.77500
C          3.11400        1.02000       -0.95800
C          2.52500        2.29100       -0.80100
C          2.91300        3.37500       -1.58800
C          3.90600        3.21600       -2.54700
C          4.51700        1.97400       -2.70600
C          4.13100        0.88500       -1.91500
H          0.83100       -1.26200        0.36800
H          0.90200       -0.64200       -1.28800
H          0.52300        0.44700        0.04500
H          2.76800        0.24000        0.97800
H          2.69100       -1.67800       -1.92900
H          1.75900        2.45100       -0.04400
H          2.44300        4.34500       -1.44600
H          4.21300        4.06000       -3.15900
H          5.30900        1.85600       -3.44300
H          4.66000       -0.05400       -2.06100
