21
7786-61-0.pdb
C          0.98100       -0.06000       -0.06000
O          2.40200       -0.07600       -0.07600
C          3.04300        1.13600       -0.07900
C          2.40200        2.38100       -0.07300
C          3.14000        3.57600       -0.07300
C          2.49700        4.89900       -0.09700
C          1.31100        5.19200        0.45300
C          4.53800        3.50700       -0.10900
C          5.19200        2.27300       -0.11400
C          4.44400        1.09800       -0.09500
O          5.08200       -0.11400       -0.09800
H          0.63300       -1.09700       -0.06600
H          0.58100        0.43000       -0.95300
H          0.60400        0.41200        0.85400
H          1.32000        2.44100       -0.08000
H          3.05500        5.69200       -0.59100
H          0.71100        4.46000        0.98400
H          0.91600        6.20100        0.39500
H          5.13400        4.41700       -0.12600
H          6.27700        2.24900       -0.13500
H          6.04000        0.03100       -0.09000
