29
7786-67-6.pdb
C          0.74600        0.11200        0.08400
C          2.27100        0.00800        0.00700
C          2.86400        0.99400       -1.01000
C          2.65400        0.56200       -2.46300
C          3.22800       -0.84500       -2.75100
C          2.54400       -1.83100       -1.75700
O          2.96900       -3.18300       -1.92900
C          2.70800       -1.43100       -0.28600
C          4.76500       -0.84700       -2.83000
C          5.40100       -0.01800       -3.92200
C          5.59000       -1.56900       -2.05100
H          0.44500        1.12300        0.37800
H          0.35300       -0.58100        0.83600
H          0.26400       -0.12000       -0.86900
H          2.65500        0.28000        0.99900
H          3.94000        1.09600       -0.82200
H          2.43000        1.99000       -0.86200
H          3.08600        1.31900       -3.12500
H          1.58000        0.56000       -2.68900
H          2.89500       -1.14300       -3.75700
H          1.47100       -1.83700       -1.98700
H          3.49200       -3.23300       -2.74700
H          3.75100       -1.54600        0.02700
H          2.15800       -2.13800        0.34800
H          4.72700        0.73900       -4.32800
H          5.70600       -0.66400       -4.75200
H          6.28600        0.50900       -3.54500
H          5.25100       -2.24100       -1.27400
H          6.67000       -1.52800       -2.18600
