27
7787-20-4.pdb
C          0.89900        0.11600       -0.17700
C          2.42300        0.04900       -0.09500
C          2.98000        1.42800        0.27000
C          2.97900       -1.07700        0.84000
C          2.30400       -2.44100        0.57500
C          2.80900       -2.82100       -0.83100
C          3.83700       -1.71700       -1.13600
C          4.87000       -2.06000       -2.17800
C          4.37300       -1.36500        0.25400
C          3.02500       -0.45000       -1.41100
O          2.85400        0.06300       -2.50600
H          0.46100        0.28900        0.81200
H          0.45900       -0.79300       -0.59800
H          0.58100        0.93400       -0.83400
H          2.63600        1.73300        1.26500
H          2.64500        2.18700       -0.44700
H          4.07300        1.45900        0.26900
H          2.98200       -0.80300        1.89800
H          1.21400       -2.42100        0.64200
H          2.65700       -3.18200        1.30400
H          1.98700       -2.83300       -1.55600
H          3.26600       -3.81600       -0.81100
H          5.44200       -2.94800       -1.88900
H          5.57700       -1.23500       -2.32200
H          4.40000       -2.26100       -3.14600
H          5.04400       -0.50100        0.26100
H          4.87700       -2.20600        0.74400
