18
7791-49-3.pdb
C          1.43200        0.19800        0.93500
O          2.50300        0.08800        0.00600
C          3.07000        1.25800       -0.44200
C          2.64600        2.56300       -0.04300
C          3.23500        3.75700       -0.50800
C          4.27800        3.51800       -1.40100
C          4.73900        2.22000       -1.83100
C          4.13200        1.04700       -1.35000
N          5.75800        2.35700       -2.69100
O          5.98400        3.72100       -2.84200
N          5.04100        4.42100       -2.02200
O          5.09900        5.67300       -2.03500
H          1.10200       -0.81300        1.19000
H          0.58000        0.72400        0.49300
H          1.76200        0.68300        1.86000
H          1.82100        2.67800        0.66000
H          2.90400        4.74100       -0.19800
H          4.45400        0.05800       -1.65200
