23
7797-81-1.pdb
O          0.92000        0.01100       -0.07300
N          2.33500        0.02600       -0.07000
C          2.94000       -1.21900       -0.06800
O          2.30200       -2.26900       -0.06900
C          4.41900       -1.20800       -0.06400
C          5.11900       -2.42000       -0.06200
C          6.51100       -2.41300       -0.05700
C          7.20100       -1.19900       -0.05400
C          6.51100        0.02400       -0.05700
C          7.20200        1.24600       -0.05400
C          6.51200        2.45900       -0.05700
C          5.12000        2.46500       -0.06200
C          4.41600        1.25500       -0.06500
C          2.93100        1.27600       -0.07100
O          2.34000        2.35200       -0.07600
C          5.09600        0.02400       -0.06200
H          0.72700       -0.94900       -0.07200
H          4.58500       -3.36800       -0.06400
H          7.06100       -3.35100       -0.05500
H          8.29000       -1.21700       -0.05000
H          8.29100        1.26400       -0.05000
H          7.06000        3.39800       -0.05400
H          4.58600        3.41400       -0.06400
