27
77987-49-6.pdb
O          1.90100        0.38100        2.40200
C          2.34300       -0.91600        2.80100
C          3.32300       -1.47000        1.76100
N          4.54000       -0.68200        1.69800
C          5.52300       -0.84400        2.63300
O          5.59500       -1.79800        3.39500
O          6.31900        0.24900        2.65400
C          7.08200        0.40300        3.85400
C          8.56600        0.39400        3.60000
C          9.25900        1.59100        3.37300
C         10.64900        1.59100        3.24600
C         11.35700        0.39300        3.33100
C         10.67500       -0.80700        3.52300
C          9.28400       -0.80800        3.64900
H          1.28200        0.69100        3.09000
H          1.46800       -1.56700        2.87900
H          2.81200       -0.83000        3.78700
H          2.87600       -1.44400        0.76400
H          3.58000       -2.50500        2.01300
H          4.47900        0.24500        1.29600
H          6.83400       -0.33400        4.62900
H          6.79600        1.37300        4.28300
H          8.72100        2.53500        3.32000
H         11.18100        2.52600        3.09500
H         12.44100        0.39600        3.25000
H         11.22700       -1.74100        3.58800
H          8.76400       -1.75100        3.81400
