15
78-92-2.pdb
C          2.87200       -1.21700       -0.93100
C          2.44800       -0.05900       -0.03600
C          2.98800        1.28500       -0.53200
C          2.53200        2.43400        0.35800
O          4.41300        1.26400       -0.55000
H          2.49100       -2.16200       -0.53000
H          3.96200       -1.29600       -0.99500
H          2.47600       -1.09300       -1.94400
H          2.81800       -0.25800        0.97600
H          1.35300       -0.02700        0.01300
H          2.65100        1.46900       -1.55800
H          2.86400        2.28600        1.39200
H          1.44200        2.53300        0.35200
H          2.97200        3.37800        0.01900
H          4.72100        1.08900        0.35600
