9
7803-58-9.pdb
N          1.07700       -0.09200       -0.15800
S          2.72800        0.01700       -0.01200
N          3.09300       -1.09900       -1.16700
O          3.08600        1.31800       -0.50800
O          3.08000       -0.49600        1.28100
H          0.76700        0.48100       -0.94300
H          0.65700        0.25600        0.70700
H          2.89000       -0.79800       -2.11400
H          2.79600       -2.03600       -0.90900
