16
78191-00-1.pdb
C          2.16100       -0.77800       -1.23200
O          2.44300       -0.19500        0.04100
N          2.97000       -1.20900        0.87600
C          2.01300       -1.61100        1.88800
C          4.30300       -1.08400        1.22700
C          5.19900       -0.29700        0.29900
O          4.78200       -1.64500        2.21500
H          1.81200        0.01200       -1.90200
H          1.37700       -1.53500       -1.13800
H          3.06500       -1.22400       -1.66000
H          0.99000       -1.42500        1.54600
H          2.19700       -1.06000        2.81700
H          2.14600       -2.67900        2.08300
H          4.66000        0.32900       -0.41200
H          5.82400       -0.99800       -0.26000
H          5.83600        0.36100        0.89800
