33
78491-02-8.pdb
O          1.12100        1.22800        0.22500
C          2.52200        1.33900        0.15400
N          3.01100        0.86600        1.40000
C          4.32300        0.96700        1.73100
O          5.16700        1.32800        0.91300
N          4.64800        0.64200        3.03000
C          3.73400        0.15800        4.04800
O          2.51100        0.86300        3.97700
C          6.06400        0.64300        3.34000
N          6.49100       -0.33900        4.29900
C          6.59000       -1.72500        3.95400
O          6.21100       -2.47900        5.08800
C          7.20800        0.24700        5.32200
O          7.83900       -0.38500        6.16200
N          7.10900        1.59300        5.22200
C          7.61100        2.53800        6.16800
O          6.50700        3.23600        6.71700
C          6.45500        1.94400        4.07500
O          6.18200        3.09400        3.74000
H          0.78100        1.57200       -0.61700
H          2.81200        2.38400        0.00500
H          2.91700        0.71600       -0.65400
H          2.32400        0.67600        2.12000
H          4.14500        0.33100        5.04800
H          3.56000       -0.91000        3.89900
H          2.73700        1.80300        4.06500
H          6.70500        0.56000        2.45400
H          7.61400       -1.97600        3.66100
H          5.89700       -1.96400        3.14400
H          6.80400       -2.17700        5.80600
H          8.26800        3.25500        5.66500
H          8.15400        2.03900        6.97500
H          6.07200        3.67000        5.96100
