30
785-30-8.pdb
N          2.33700       -0.17200       -0.16000
C          0.95500       -0.06100        0.02300
C          0.34000        1.18500       -0.06200
C         -1.05400        1.30300       -0.01900
C         -1.87100        0.17500        0.05700
N         -3.28700        0.23000        0.07700
C         -4.05500        1.38400        0.03200
O         -3.63200        2.53300       -0.02300
C         -5.53700        1.21900        0.02900
C         -6.20200        0.15000        0.63600
C         -7.60400        0.11900        0.64500
C         -8.35500        1.16600        0.09800
N         -9.74900        1.07600        0.01800
C         -7.68500        2.19500       -0.56200
C         -6.29100        2.23500       -0.57700
C         -1.25700       -1.08200        0.08900
C          0.14300       -1.19600        0.05200
H          2.85000        0.66300        0.10900
H          2.74100       -1.01500        0.23400
H          0.93400        2.08800       -0.16400
H         -1.46000        2.30700       -0.07100
H         -3.76500       -0.65900        0.06100
H         -5.66100       -0.65000        1.13100
H         -8.11200       -0.72500        1.10500
H        -10.17000        0.53300        0.76500
H        -10.20700        1.97400       -0.10400
H         -8.23900        2.98800       -1.05800
H         -5.78900        3.07000       -1.06400
H         -1.84700       -1.99300        0.12700
H          0.59400       -2.18500        0.04200
