30
787-84-8.pdb
O          1.14000        0.04200       -0.14400
C          2.36300        0.11700       -0.06600
N          3.07300        1.24000       -0.43700
N          2.38400        2.35500       -0.92300
C          3.13200        3.44300       -1.32700
O          4.36200        3.43900       -1.29600
C          2.39200        4.63500       -1.82300
C          1.08400        4.92800       -1.41400
C          0.45400        6.09100       -1.86900
C          1.12400        6.96200       -2.72900
C          2.42600        6.67700       -3.13700
C          3.06000        5.51900       -2.68200
C          3.17900       -1.03700        0.40400
C          2.69700       -2.33400        0.18700
C          3.45900       -3.43900        0.57300
C          4.69500       -3.25400        1.19200
C          5.16500       -1.96400        1.44300
C          4.40800       -0.85500        1.05500
H          4.08700        1.27400       -0.52200
H          1.38100        2.24700       -1.06400
H          0.55300        4.28800       -0.71600
H         -0.55500        6.32600       -1.54100
H          0.63400        7.87000       -3.07400
H          2.95100        7.35900       -3.80100
H          4.08200        5.31100       -2.99400
H          1.73400       -2.48600       -0.29500
H          3.08900       -4.44500        0.38900
H          5.29000       -4.11500        1.48600
H          6.11900       -1.82300        1.94300
H          4.78200        0.13800        1.28700
