12
79-05-0.pdb
C          0.99700        0.12300        0.05900
C          2.51200        0.01800        0.05200
C          2.99500       -1.41400       -0.04400
N          4.35400       -1.55300       -0.05500
O          2.26600       -2.39400       -0.10900
H          0.68900        1.17100        0.13000
H          0.56700       -0.41600        0.91000
H          0.56700       -0.29800       -0.85600
H          2.91300        0.45900        0.97200
H          2.91200        0.57800       -0.80100
H          4.99600       -0.77600       -0.00400
H          4.72700       -2.49100       -0.11900
