13
79-39-0.pdb
C          1.08300        0.05200        0.03300
C          2.57900        0.04800        0.04000
C          3.28200       -0.56800        1.00500
C          3.35300        0.73600       -1.03800
N          2.62700        1.35200       -2.00700
O          4.57800        0.76100       -1.07500
H          0.67100       -0.49400        0.88900
H          0.69900       -0.42600       -0.87300
H          0.69900        1.07600        0.08500
H          2.79200       -1.08900        1.82200
H          4.36900       -0.56900        1.00800
H          1.62100        1.37600       -2.04700
H          3.14900        1.81800       -2.73800
