10
79-40-3.pdb
N          1.10900       -0.02600       -0.02800
C          2.47000        0.09900        0.04300
S          3.33100       -0.26300        1.41700
C          3.21200        0.55600       -1.19500
N          4.37300       -0.08800       -1.52800
S          2.57800        1.78700       -2.11300
H          0.58200       -0.24700        0.80700
H          0.60300        0.30800       -0.84100
H          4.79200       -0.75700       -0.89100
H          4.93200        0.25200       -2.30100
