34
79-77-6.pdb
C          1.09300        0.11400       -0.39100
C          2.58200       -0.03500       -0.20900
O          3.17800       -1.05100       -0.54800
C          3.28200        1.11500        0.42900
C          4.60500        1.08500        0.65400
C          5.33300        2.17900        1.29900
C          5.02900        2.59600        2.55500
C          4.06700        1.90900        3.49700
C          5.65800        3.82300        3.18100
C          6.42900        4.69700        2.20200
C          7.30300        3.82900        1.31500
C          6.46700        2.82800        0.46500
C          7.47600        1.78400       -0.07000
C          5.85900        3.57800       -0.74000
H          0.69300       -0.77600       -0.88600
H          0.87900        0.98500       -1.01700
H          0.60900        0.21900        0.58300
H          2.66900        1.95700        0.72500
H          5.18900        0.22500        0.33000
H          3.66300        0.96800        3.11600
H          3.22500        2.57100        3.72600
H          4.58000        1.66500        4.43400
H          6.32900        3.49900        3.98800
H          4.87600        4.43900        3.64200
H          7.04800        5.41100        2.75700
H          5.73400        5.29000        1.59600
H          8.00900        3.28200        1.95600
H          7.91500        4.46800        0.66600
H          7.91800        1.20300        0.74800
H          8.29800        2.27500       -0.60600
H          7.01800        1.08100       -0.77300
H          5.13000        4.33200       -0.42400
H          5.34800        2.89300       -1.42600
H          6.63700        4.09100       -1.31800
