26
79-92-5.pdb
C          0.95000        0.17700       -0.02600
C          2.48300        0.10200        0.01100
C          3.02500        1.48500        0.41800
C          3.03500       -1.01500        0.95900
C          2.36300       -2.38400        0.70500
C          2.87600       -2.76600       -0.69600
C          3.87400       -1.63900       -1.01600
C          4.42500       -1.29900        0.36600
C          3.07700       -0.38100       -1.31000
C          2.97400        0.20600       -2.51000
H          0.54400        0.34400        0.97800
H          0.49200       -0.73100       -0.43100
H          0.61100        1.00200       -0.66300
H          2.67300        1.75700        1.42000
H          2.68500        2.26400       -0.27400
H          4.11900        1.52500        0.43200
H          3.04200       -0.73500        2.01600
H          1.27300       -2.36600        0.76700
H          2.71500       -3.11900        1.43900
H          2.06100       -2.82800       -1.42600
H          3.37800       -3.73900       -0.66000
H          4.62100       -1.89600       -1.76900
H          5.10200       -0.44000        0.37100
H          4.93100       -2.14600        0.84400
H          3.45700       -0.21600       -3.38500
H          2.40700        1.12000       -2.64400
