25
79322-76-2.pdb
C         10.85400       -7.22800        0.58700
O         10.37200       -5.88500        0.55700
C         11.19800       -4.99900        1.17600
O         12.25100       -5.26400        1.73000
C         10.60500       -3.64300        1.15100
C          9.76200       -3.21500        0.11800
C          9.22600       -1.92300        0.14800
C          9.52100       -1.04000        1.19900
C         10.37400       -1.48400        2.22400
C         10.91500       -2.77000        2.19700
C          8.94000        0.35900        1.22100
C         10.01100        1.44400        1.18500
O          8.14000        0.54100        2.38600
H         10.17200       -7.84700       -0.00200
H         10.86800       -7.60700        1.61400
H         11.85000       -7.29000        0.13800
H          9.52700       -3.87600       -0.71100
H          8.56600       -1.61200       -0.66300
H         10.62500       -0.83400        3.05900
H         11.57500       -3.09300        3.00100
H          8.27200        0.50000        0.36200
H         10.68500        1.37900        2.04700
H          9.54900        2.43600        1.23300
H         10.61500        1.38200        0.27400
H          8.67000        0.28000        3.15700
