59
79709-85-6.pdb
C          0.88300        1.23800       -1.55100
C          2.39800        1.28300       -1.58400
C          2.94500        1.91400       -0.30800
C          4.46500        1.96100       -0.34000
C          5.02000        2.61500        0.92400
C          6.55100        2.68300        0.91400
C          7.05700        3.32200        2.21600
C          8.57600        3.41000        2.22800
C          9.09900        4.15900        0.99700
C          8.57900        3.56000       -0.31200
C          7.06700        3.45600       -0.30900
C         10.60700        4.18300        0.97200
C         11.34600        2.99700        0.94100
C         12.73300        3.03200        0.88300
C         13.42400        4.25100        0.83700
C         12.66700        5.43500        0.86500
C         11.27600        5.40400        0.93900
C         14.89500        4.29100        0.75400
C         15.62000        3.28300        0.09300
C         17.01300        3.31800        0.02400
C         17.72400        4.37000        0.61400
C         19.22500        4.40800        0.58400
C         19.78000        5.14400       -0.62500
C         17.01200        5.38800        1.25500
C         15.62300        5.34300        1.33600
H          0.49000        0.78300       -2.46400
H          0.46800        2.24800       -1.46400
H          0.53200        0.65000       -0.69600
H          2.72700        1.85600       -2.45800
H          2.79300        0.26600       -1.69600
H          2.61300        1.34600        0.56800
H          2.55500        2.93500       -0.20500
H          4.76400        2.52400       -1.22900
H          4.87600        0.94900       -0.44100
H          4.69100        2.04100        1.80100
H          4.60400        3.62400        1.03200
H          6.94200        1.65600        0.86400
H          6.72600        2.73500        3.08100
H          6.63500        4.32800        2.33300
H          8.98400        2.39200        2.27400
H          8.91000        3.91600        3.14300
H          8.72600        5.19100        1.05900
H          8.99600        2.55800       -0.48300
H          8.89800        4.17400       -1.16500
H          6.78100        2.95600       -1.23900
H          6.62600        4.46000       -0.33100
H         10.84900        2.02800        0.95200
H         13.26600        2.08300        0.87900
H         13.14900        6.40500        0.81300
H         10.72700        6.34100        0.95600
H         15.10400        2.45400       -0.38000
H         17.53600        2.50900       -0.47500
H         19.61600        3.38500        0.60900
H         19.58400        4.89300        1.50000
H         19.46300        4.67500       -1.56200
H         20.87400        5.13300       -0.59200
H         19.45500        6.19000       -0.64300
H         17.54000        6.22100        1.72000
H         15.11500        6.13700        1.87400
