36
79868-22-7.pdb
C          2.39700       -2.54500        0.88400
C          2.28200       -2.22000       -0.59500
C          3.01600       -0.93400       -1.00500
N          4.47900       -0.96500       -0.85200
C          5.16100        0.07800       -0.07800
C          4.36400        1.20800        0.57400
C          5.31200        2.14400        1.32100
C          5.17600       -1.85200       -1.71800
O          4.58000       -2.56700       -2.52800
C          6.67800       -1.94100       -1.75100
C          7.50500       -1.74600       -0.64000
C          8.89900       -1.76000       -0.76200
C          9.48600       -2.07300       -1.98800
C          8.67900       -2.37200       -3.09600
C          7.28400       -2.29700       -2.97100
N         10.94700       -2.09500       -2.10600
O         11.60900       -1.74500       -1.11800
O         11.43400       -2.45300       -3.18800
H          1.82100       -3.44900        1.10900
H          1.99900       -1.73300        1.50000
H          3.43600       -2.72900        1.17400
H          1.21900       -2.09700       -0.83900
H          2.63000       -3.07900       -1.17400
H          2.58300       -0.10300       -0.44400
H          2.80500       -0.73100       -2.06300
H          5.93200        0.51700       -0.72100
H          5.64100       -0.43900        0.75300
H          3.64500        0.79600        1.29200
H          3.80800        1.78100       -0.17500
H          5.91300        1.59400        2.05400
H          4.75300        2.91600        1.85700
H          6.00000        2.63900        0.62700
H          7.10100       -1.60500        0.35300
H          9.50500       -1.53800        0.11500
H          9.11300       -2.66600       -4.04900
H          6.66500       -2.52900       -3.83800
