42
80-43-3.pdb
C          1.07400        0.05700        0.07400
C          2.60800       -0.04200        0.09500
C          3.06200       -1.50800        0.22200
O          3.15900        0.48600       -1.13300
O          2.59100       -0.27500       -2.24400
C          3.15300        0.23400       -3.47400
C          2.71400        1.70100       -3.61600
C          4.68700        0.13000       -3.44700
C          2.62300       -0.66500       -4.60200
C          2.39900       -0.18500       -5.90600
C          1.91500       -1.02500       -6.91200
C          1.65800       -2.36600       -6.64600
C          1.89500       -2.87200       -5.37200
C          2.37800       -2.03300       -4.36500
C          3.14200        0.83200        1.24300
C          3.27200        0.33900        2.55400
C          3.78900        1.13600        3.58000
C          4.16900        2.44900        3.32200
C          4.01400        2.97300        2.04300
C          3.49900        2.17500        1.01700
H          0.64100       -0.57300       -0.71200
H          0.74800        1.08200       -0.13500
H          0.63400       -0.25500        1.02800
H          2.74400       -2.10500       -0.63900
H          2.65800       -1.99800        1.11300
H          4.15700       -1.57100        0.25500
H          3.06900        2.31000       -2.77700
H          1.62000        1.78000       -3.61500
H          3.09700        2.17000       -4.52800
H          5.12200        0.78000       -2.68000
H          5.12800        0.41000       -4.41000
H          5.01000       -0.89100       -3.20700
H          2.59600        0.85100       -6.16600
H          1.74000       -0.62800       -7.91000
H          1.27700       -3.01500       -7.42800
H          1.70300       -3.92000       -5.15800
H          2.55900       -2.45900       -3.38000
H          2.97600       -0.67600        2.80400
H          3.89700        0.72600        4.58100
H          4.58100        3.06400        4.11800
H          4.29800        4.00200        1.83900
H          3.38600        2.61700        0.02900
