25
80-40-0.pdb
C          0.98800       -0.30800        0.18400
C          2.48000       -0.04800        0.13000
O          3.08800       -0.98000       -0.75300
S          4.70600       -0.87000       -0.92900
O          5.00300        0.44600       -1.46300
O          5.32700       -1.33500        0.29600
C          5.08500       -2.06500       -2.18800
C          5.67100       -1.65600       -3.38900
C          5.97200       -2.60600       -4.36600
C          5.69300       -3.96200       -4.14900
C          5.99700       -4.98700       -5.20300
C          5.11600       -4.35900       -2.93300
C          4.81100       -3.41400       -1.95100
H          0.49400        0.40400        0.85200
H          0.78400       -1.32300        0.53900
H          0.54300       -0.22200       -0.81300
H          2.91100       -0.15200        1.13100
H          2.66100        0.97100       -0.23000
H          5.89900       -0.60800       -3.57200
H          6.42800       -2.28000       -5.29900
H          6.45800       -4.53100       -6.08500
H          5.07300       -5.47900       -5.52300
H          6.69000       -5.73900       -4.81300
H          4.90500       -5.41000       -2.74700
H          4.37200       -3.73400       -1.00900
