32
80307-12-6.pdb
O          1.17500       -0.04900        0.37100
C          2.32000        0.05000       -0.04600
C          3.04900       -0.97000       -0.89800
C          2.07600       -1.79000       -1.74400
C          2.81000       -2.77300       -2.65900
N          1.88500       -3.55400       -3.45800
C          1.36600       -4.75400       -3.09400
O          1.57000       -5.40400       -2.08600
C          0.45500       -5.17200       -4.16600
C          0.43500       -4.20400       -5.08300
C          1.33900       -3.14200       -4.62900
O          1.51500       -2.10000       -5.23300
O          3.12600        1.14200        0.14300
N          2.46400        2.33700       -0.16100
C          2.62500        3.44800        0.60700
O          3.18300        3.55300        1.68500
C          2.05700        4.60500       -0.17600
C          1.97800        4.08500       -1.60400
C          2.26800        2.61800       -1.47500
O          2.40800        1.86400       -2.42400
H          3.65500       -1.61100       -0.25100
H          3.72500       -0.43000       -1.57500
H          1.45500       -1.11800       -2.35000
H          1.38700       -2.33900       -1.09200
H          3.41700       -3.46000       -2.05800
H          3.47500       -2.22900       -3.33900
H         -0.08400       -6.10200       -4.15900
H         -0.12300       -4.15600       -6.00100
H          2.72100        5.47200       -0.11800
H          1.06900        4.87300        0.21000
H          2.76100        4.53100       -2.22400
H          1.00100        4.25500       -2.06100
