23
80526-82-5.pdb
C          0.47900       -0.95100       -0.28200
N          1.98100       -0.97600       -0.42000
C          2.61100       -0.61500        0.92600
C          2.50300       -2.33000       -0.83400
C          2.39100        0.03800       -1.48900
O          3.05000        2.50300        0.25400
S          4.65300        2.40600        0.36000
O          4.78900        2.59900        1.79000
O          4.92200        1.05800       -0.12300
O          5.08100        3.49400       -0.50000
H          0.18300       -1.71400        0.44300
H          0.03600       -1.15700       -1.25900
H          0.17900        0.04300        0.07000
H          2.23900       -1.33000        1.66800
H          2.29500        0.38900        1.21100
H          3.69400       -0.71300        0.85700
H          2.16800       -3.07000       -0.10200
H          3.59700       -2.29000       -0.86100
H          2.10900       -2.56700       -1.82600
H          2.00200        1.01800       -1.21700
H          1.92800       -0.27100       -2.43300
H          3.47300        0.01900       -1.61100
H          2.83600        3.00700        1.06600
