28
80548-31-8.pdb
C          0.86400       -0.04700       -0.02100
C          2.38600        0.06900        0.00800
N          2.87600        0.24200       -1.39500
C          4.37500        0.34900       -1.55100
C          4.67900        0.41700       -3.04400
O          4.05200       -0.71300       -3.65200
C          2.86500        1.19600        0.89800
C          3.70800        0.91100        1.98600
C          4.24400        1.94500        2.75500
C          3.94500        3.26900        2.45000
C          3.09600        3.56500        1.38700
C          2.55100        2.53800        0.61800
H          0.54700       -0.90900       -0.62100
H          0.38800        0.84400       -0.44500
H          0.46500       -0.18300        0.99200
H          2.79900       -0.88900        0.34700
H          2.43800        1.06600       -1.82200
H          2.58500       -0.55000       -1.99500
H          4.79100       -0.56700       -1.11600
H          4.73200        1.23300       -1.02700
H          5.75600        0.40500       -3.23300
H          4.25400        1.32500       -3.48500
H          4.75700       -1.24700       -4.07100
H          3.96900       -0.11400        2.24400
H          4.90100        1.71800        3.59200
H          4.36800        4.07400        3.04800
H          2.86100        4.60300        1.16100
H          1.89300        2.80900       -0.20300
