27
80938-67-6.pdb
C          1.86900        1.55600        0.06000
C          0.60500        0.74200        0.02300
C         -0.63100        1.40100       -0.03800
C         -1.83000        0.68100       -0.04700
C         -1.83800       -0.71900        0.03600
C         -0.58600       -1.35900        0.10600
C          0.63000       -0.65900        0.03600
N          1.83000       -1.37200        0.21300
C         -3.10300       -1.49600        0.06500
C         -3.19300       -2.77000       -0.52900
C         -4.37100       -3.52200       -0.47800
C         -5.49800       -3.00800        0.15400
C         -5.44500       -1.74500        0.73500
C         -4.26000       -1.00200        0.69400
H          1.65900        2.63100        0.06000
H          2.48500        1.33900       -0.81800
H          2.43900        1.33300        0.96900
H         -0.67300        2.48800       -0.06800
H         -2.76200        1.23800       -0.11200
H         -0.54800       -2.43900        0.22600
H          1.77500       -2.33700       -0.09800
H          2.64400       -0.90000       -0.16400
H         -2.33900       -3.19600       -1.05100
H         -4.40400       -4.50800       -0.93400
H         -6.41400       -3.59200        0.19600
H         -6.32300       -1.33800        1.22900
H         -4.25100       -0.02900        1.18100
