33
81-13-0.pdb
C          0.92300        0.14400        0.09500
C          2.46400        0.03200        0.04100
C          2.81500       -1.46800       -0.04700
C          2.97700        0.73300       -1.23300
O          2.71000        2.12900       -1.19600
C          3.05200        0.68700        1.32500
O          2.56100        0.01100        2.48700
C          4.59400        0.69600        1.36100
O          5.22700       -0.23400        1.86700
N          5.19100        1.79700        0.79100
C          6.62900        1.92300        0.65600
C          7.26100        2.59900        1.87000
C          8.77700        2.69200        1.74000
O          9.36300        1.40200        1.65900
H          0.46500       -0.27300       -0.80900
H          0.59800        1.18700        0.18300
H          0.50900       -0.40100        0.95100
H          2.37600       -1.92100       -0.94500
H          2.43400       -2.02500        0.81500
H          3.89700       -1.62700       -0.10000
H          2.51200        0.31400       -2.13600
H          4.05800        0.60000       -1.35400
H          1.79000        2.25700       -1.48800
H          2.70800        1.72400        1.41100
H          3.15500       -0.75600        2.62300
H          4.59700        2.53100        0.41200
H          6.81500        2.51300       -0.24800
H          7.05500        0.92600        0.50000
H          7.00600        2.03200        2.77500
H          6.84500        3.60600        1.99200
H          9.20600        3.20900        2.60400
H          9.05700        3.24800        0.84200
H          9.07300        0.89200        2.43700
