20
81-20-9.pdb
C          2.57500        1.06800        0.00700
C          1.23800        0.37700       -0.00600
C          1.21500       -1.02600       -0.00000
C          0.00800       -1.72100        0.00600
C         -1.20300       -1.03400        0.00800
C         -1.23300        0.36900        0.00300
C         -2.57600        1.05100       -0.00600
C         -0.00100        1.06200       -0.00600
N         -0.00200        2.52000       -0.01600
O          0.51200        3.08400       -0.99200
O         -0.52700        3.09400        0.95200
H          3.39300        0.34000        0.02900
H          2.67600        1.69500        0.90000
H          2.71300        1.67200       -0.89300
H          2.14400       -1.59100        0.00200
H          0.01200       -2.81000        0.00800
H         -2.12900       -1.60500        0.01100
H         -3.39000        0.31800       -0.00300
H         -2.69100        1.66100       -0.90600
H         -2.70700        1.67100        0.88700
