30
81-55-0.pdb
O          2.57700       -2.34700       -0.15600
C          2.51800       -0.98700       -0.06200
C          3.72600       -0.28400       -0.05900
C          3.71700        1.10300        0.00500
C          2.48700        1.77300        0.08300
C          1.26700        1.07800        0.11000
C         -0.01300        1.76000        0.35600
O         -0.02300        2.84100        0.92600
C         -1.28700        1.07900        0.07800
C         -2.50100        1.78000        0.00800
C         -3.73300        1.12000       -0.07000
C         -3.75200       -0.27000       -0.08500
C         -2.54800       -0.98000       -0.05500
O         -2.61600       -2.34300       -0.09900
C         -1.30400       -0.31700        0.01700
C         -0.01400       -1.06300        0.07100
O         -0.01500       -2.28200        0.17200
C          1.27700       -0.31800        0.02300
N         -2.53100        3.22700       -0.08400
O         -2.04400        3.72200       -1.10900
O         -3.15100        3.83200        0.80000
N          2.53800        3.22400        0.04900
O          3.22700        3.77900        0.91500
O          1.99700        3.77300       -0.91900
H          3.48400       -2.67300       -0.04500
H          4.67900       -0.80600       -0.11800
H          4.65500        1.65400       -0.01400
H         -4.66700        1.67700       -0.12300
H         -4.70800       -0.78700       -0.13700
H         -3.52500       -2.65800        0.02600
