26
81-64-1.pdb
O          0.96800        0.14900        0.00100
C          2.33300        0.08500        0.00000
C          3.04800        1.28000        0.00000
C          4.43800        1.24900       -0.00100
C          5.11000        0.02400       -0.00200
O          6.47600        0.04500       -0.00500
C          4.40200       -1.19300       -0.00100
C          5.10800       -2.51000       -0.00100
O          6.32700       -2.60800       -0.00200
C          4.31400       -3.75700       -0.00100
C          4.95700       -5.00400       -0.00000
C          4.20800       -6.18500        0.00000
C          2.81600       -6.12900        0.00000
C          2.17700       -4.89300       -0.00000
C          2.92800       -3.70800       -0.00100
C          2.22300       -2.42100       -0.00100
O          0.99600       -2.44800       -0.00100
C          2.99700       -1.15700       -0.00000
H          0.65400        1.06500        0.00100
H          2.53500        2.23800        0.00100
H          4.98300        2.18900       -0.00100
H          6.81100        0.95600       -0.01200
H          6.04400       -5.06200        0.00100
H          4.71000       -7.14900        0.00200
H          2.22600       -7.04200        0.00200
H          1.08800       -4.85100        0.00100
