22
81-83-4.pdb
O          2.23800       -2.34400       -0.03100
C          1.62800       -1.28300        0.02100
N          2.27700       -0.07100        0.06600
C          1.70300        1.17800        0.03400
O          2.37900        2.20000        0.03000
C          0.22500        1.21900       -0.00700
C         -0.43300        2.45300       -0.05300
C         -1.82400        2.49300       -0.06800
C         -2.55600        1.30500       -0.03000
C         -1.90800        0.05900        0.01000
C         -2.63300       -1.14400        0.04700
C         -1.97600       -2.37700        0.06800
C         -0.58500       -2.42400        0.05300
C          0.14900       -1.23300        0.03000
C         -0.49500        0.01400        0.01200
H          3.28700       -0.10300        0.07000
H          0.13700        3.38000       -0.07600
H         -2.34000        3.45000       -0.10800
H         -3.64400        1.35900       -0.03700
H         -3.72100       -1.13000        0.05800
H         -2.55100       -3.29900        0.09500
H         -0.07400       -3.38500        0.06200
