31
81172-89-6.pdb
C          0.80700       -0.24300       -0.08700
C          2.31400       -0.18100        0.08300
O          2.89200       -0.95800       -0.95900
C          4.31900       -0.93500       -0.96000
O          4.87600       -1.45900        0.25300
C          4.57400       -2.83500        0.47400
C          5.19500       -3.26100        1.79000
C          4.86500       -1.67900       -2.17700
C          4.00800       -2.32600       -3.08300
C          4.52100       -3.10800       -4.11900
C          5.90000       -3.24300       -4.26400
C          6.44600       -4.11000       -5.33200
O          5.72800       -4.72000       -6.11300
C          6.77200       -2.58400       -3.39500
C          6.25500       -1.79900       -2.36000
H          0.29500        0.22300        0.75900
H          0.46900       -1.28100       -0.18000
H          0.50500        0.27100       -1.00600
H          2.58700       -0.60000        1.05700
H          2.65800        0.85700        0.02600
H          4.64400        0.11100       -1.04700
H          4.99700       -3.45700       -0.32000
H          3.48900       -2.99100        0.50700
H          6.26300       -3.01900        1.80900
H          5.07300       -4.33600        1.94400
H          4.72900       -2.72900        2.62500
H          2.92700       -2.25600       -2.96700
H          3.83800       -3.62400       -4.79300
H          7.54400       -4.18500       -5.38600
H          7.85000       -2.69300       -3.49300
H          6.93700       -1.31600       -1.66200
