34
82-76-8.pdb
O          1.82000       -1.91000       -1.81300
S          2.12600       -0.60200       -0.90000
O          0.81700       -0.02100       -0.72000
O          2.96200       -1.04000        0.20200
C          3.12800        0.43200       -1.94100
C          3.86000       -0.27600       -2.92300
C          4.44300        0.39300       -3.98100
C          4.27000        1.76200       -4.07500
C          3.60500        2.49100       -3.07500
C          3.51100        3.86900       -3.28600
C          2.95200        4.70200       -2.33800
C          2.50500        4.15800       -1.14800
C          2.53900        2.76600       -0.89000
N          2.08100        2.31300        0.39200
C          1.44000        3.12400        1.37700
C          0.29200        3.86900        1.05900
C         -0.22200        4.82700        1.94000
C          0.38900        5.03600        3.17200
C          1.50300        4.27500        3.52600
C          2.02700        3.32800        2.63400
C          3.06200        1.86700       -1.90500
H          0.84800       -1.93100       -1.95300
H          3.95100       -1.36100       -2.88300
H          4.99000       -0.14600       -4.74900
H          4.68500        2.27200       -4.94500
H          3.88600        4.32100       -4.20300
H          2.89400        5.77300       -2.50500
H          2.15400        4.86000       -0.39600
H          2.73300        1.65700        0.81700
H         -0.18500        3.73100        0.09100
H         -1.08500        5.42200        1.65100
H          0.00300        5.79300        3.85100
H          1.97900        4.43800        4.49000
H          2.92100        2.78200        2.92100
