22
820-10-0.pdb
C          1.14600       -0.02300       -0.08300
S          2.91600       -0.14900       -0.00900
O          3.27200       -0.46800        1.36100
O          3.34000       -0.98500       -1.11200
C          3.46700        1.52200       -0.33600
C          4.99200        1.61000       -0.30200
C          5.53400        3.00800       -0.61000
N          5.14300        4.02000        0.41000
C          7.07500        2.99900       -0.70200
O          7.59500        4.18000       -0.27700
O          7.75900        2.08000       -1.12600
H          0.72700       -1.01300        0.11300
H          0.85500        0.31400       -1.07900
H          0.80800        0.68100        0.68000
H          3.01200        2.15800        0.43000
H          3.08000        1.80700       -1.31900
H          5.39900        0.90200       -1.03500
H          5.36600        1.27000        0.67300
H          5.17000        3.35100       -1.58600
H          5.36200        3.64400        1.34100
H          4.12800        4.13300        0.40600
H          6.83300        4.72500        0.03500
