44
821-38-5.pdb
O          1.12700        0.02000        0.05100
C          2.47500        0.09000        0.11400
O          3.03700        0.86200        0.86200
C          3.18500       -0.86900       -0.82200
C          4.69900       -0.70500       -0.66600
C          5.47300       -1.63900       -1.58200
C          6.97200       -1.44300       -1.39100
C          7.74300       -2.37700       -2.30800
C          9.23700       -2.18200       -2.11700
C         10.00400       -3.11500       -3.03600
C         11.49600       -2.91800       -2.84400
C         12.26400       -3.85000       -3.76300
C         13.76100       -3.65700       -3.57600
C         14.51800       -4.59900       -4.50300
C         16.03300       -4.44200       -4.35100
C         16.80300       -5.36800       -5.26400
O         18.14300       -5.28900       -5.18600
O         16.26100       -6.15000       -6.03500
H          0.75700       -0.62100       -0.57200
H          2.89700       -0.65100       -1.85600
H          2.90000       -1.89700       -0.57700
H          4.98600       -0.89700        0.37500
H          4.98300        0.33300       -0.88300
H          5.20800       -1.44500       -2.62800
H          5.21000       -2.68100       -1.36400
H          7.24800       -1.63900       -0.34700
H          7.24700       -0.40300       -1.60700
H          7.47300       -2.18000       -3.35300
H          7.47300       -3.41800       -2.09300
H          9.50900       -2.38200       -1.07300
H          9.50900       -1.14200       -2.33100
H          9.73200       -2.91800       -4.08000
H          9.73400       -4.15700       -2.82200
H         11.76800       -3.11600       -1.80000
H         11.76600       -1.87700       -3.06000
H         11.99000       -3.65400       -4.80700
H         11.99200       -4.89100       -3.55000
H         14.03500       -3.85700       -2.53200
H         14.03300       -2.61600       -3.79200
H         14.21500       -4.39200       -5.54000
H         14.21800       -5.63300       -4.27900
H         16.30400       -4.66200       -3.31600
H         16.30200       -3.40900       -4.58900
H         18.52700       -4.65300       -4.56000
