28
821-55-6.pdb
C          0.91100        0.04700        0.07900
C          2.43000        0.07400        0.05900
C          2.95400        1.28400       -0.71600
C          4.48100        1.30700       -0.73000
C          5.02300        2.51300       -1.50100
C          6.55300        2.50900       -1.49900
C          7.14000        3.70100       -2.26000
C          8.66300        3.68700       -2.25100
C          9.37700        4.80800       -2.96600
O          9.31000        2.80600       -1.68700
H          0.55300       -0.82400        0.63600
H          0.50800       -0.01000       -0.93800
H          0.51000        0.94600        0.55800
H          2.80200       -0.85100       -0.39700
H          2.80400        0.10100        1.09000
H          2.57500        2.20600       -0.25800
H          2.57500        1.25300       -1.74500
H          4.85600        0.38200       -1.18600
H          4.85600        1.33300        0.30000
H          4.65400        3.43900       -1.04500
H          4.65300        2.48800       -2.53400
H          6.91400        1.57400       -1.94500
H          6.91400        2.52100       -0.46300
H          6.80400        4.63700       -1.80100
H          6.80500        3.67700       -3.30300
H          8.67100        5.51000       -3.41400
H         10.00300        4.38400       -3.75500
H         10.00100        5.34600       -2.24800
