33
821-95-4.pdb
C          1.07300        0.01500       -0.04600
C          2.58800        0.00800       -0.04500
C          3.11300       -1.04000        0.92800
C          4.63300       -1.05000        0.93500
C          5.14800       -2.10000        1.90700
C          6.66700       -2.10800        1.91400
C          7.18800       -3.15600        2.88200
C          8.70900       -3.16300        2.88900
C          9.23000       -4.21300        3.86100
C         10.72600       -4.23800        3.88400
C         11.42600       -3.99400        4.99900
H          0.69700        0.76800       -0.74500
H          0.68600        0.24700        0.95100
H          0.68100       -0.96200       -0.34800
H          2.96200        0.99900        0.23800
H          2.95700       -0.20400       -1.05500
H          2.73800       -2.03200        0.64500
H          2.74100       -0.83000        1.93900
H          5.01200       -0.06200        1.22200
H          5.01000       -1.26200       -0.07400
H          4.77200       -3.09000        1.62000
H          4.77200       -1.89100        2.91600
H          7.04300       -1.11800        2.20000
H          7.04300       -2.31700        0.90400
H          6.80800       -4.14600        2.59800
H          6.80800       -2.94700        3.89300
H          9.07800       -2.16900        3.17300
H          9.07800       -3.36800        1.87700
H          8.86100       -5.20400        3.57200
H          8.83500       -4.00400        4.86300
H         11.24900       -4.45700        2.95700
H         10.93600       -3.77100        5.93800
H         12.51200       -4.01500        4.99100
