19
821-41-0.pdb
O          0.95800        0.00900       -0.10700
C          2.37900       -0.01500       -0.08100
C          2.90600        1.03700       -1.04600
C          4.43300        1.06200       -1.06800
C          4.95200        2.12400       -2.03800
C          6.45300        2.16000       -2.05800
C          7.17300        3.24100       -1.73600
H          0.65100       -0.67000        0.51800
H          2.71500       -1.01500       -0.37300
H          2.71300        0.19100        0.94000
H          2.51300        2.02100       -0.76000
H          2.51400        0.83900       -2.05100
H          4.81100        0.07400       -1.35900
H          4.81000        1.26500       -0.05800
H          4.54800        3.10400       -1.75900
H          4.59500        1.90800       -3.05200
H          6.96800        1.25300       -2.36800
H          6.70000        4.17100       -1.43200
H          8.25800        3.22000       -1.77400
