23
823-76-7.pdb
C          3.19400        0.59100       -1.21700
C          2.55900        0.06200        0.04400
O          1.48700       -0.54400       -0.00200
C          3.28600        0.33300        1.35800
C          2.99300       -0.77900        2.37600
C          3.63500       -0.49600        3.73100
C          3.21500        0.86700        4.27000
C          3.53000        1.97700        3.27300
C          2.89400        1.70800        1.90900
H          2.57400        0.32300       -2.07700
H          4.18100        0.14000       -1.34700
H          3.27600        1.67800       -1.16700
H          4.36400        0.32200        1.14800
H          3.35700       -1.74000        1.99000
H          1.91000       -0.89100        2.51400
H          4.72700       -0.53200        3.63400
H          3.35100       -1.27900        4.44300
H          3.72600        1.06300        5.21800
H          2.13800        0.86100        4.48200
H          4.61900        2.06300        3.15600
H          3.17500        2.93700        3.66500
H          3.19400        2.49700        1.20900
H          1.80200        1.77800        2.00000
