18
824-46-4.pdb
C          1.12600       -0.13800       -0.36400
O          2.48900        0.02100        0.01100
C          3.14400       -1.12700        0.37900
C          2.79900       -2.40200       -0.07700
C          3.54100       -3.50700        0.33400
O          3.22800       -4.76500       -0.09300
C          4.62800       -3.36400        1.18700
C          4.98800       -2.09500        1.64000
C          4.24900       -0.98400        1.23100
O          4.59400        0.26400        1.67900
H          0.69400        0.85800       -0.49900
H          0.56000       -0.64900        0.42200
H          1.03500       -0.66400       -1.32000
H          1.97200       -2.54400       -0.76100
H          2.46400       -4.71300       -0.69000
H          5.19600       -4.23800        1.49400
H          5.83900       -1.99300        2.30500
H          5.37400        0.19100        2.24800
