23
82560-12-1.pdb
C          1.06500       -0.05600        0.03200
C          2.60600       -0.02500        0.03600
C          3.10100       -0.88800        1.21400
C          3.10700       -0.64000       -1.28400
C          3.15300        1.37800        0.17800
N          2.38200        2.50700        0.30100
N          3.08900        3.63900        0.42800
C          4.35200        3.23600        0.39700
N          5.39700        4.05700        0.51400
C          4.45500        1.84500        0.22600
H          0.69000       -1.08200       -0.05900
H          0.65400        0.51900       -0.80700
H          0.65100        0.36200        0.95700
H          2.72000       -1.91300        1.14100
H          2.76900       -0.47500        2.17400
H          4.19500       -0.94500        1.24200
H          2.73700       -1.66400       -1.41100
H          4.20200       -0.67900       -1.32200
H          2.77000       -0.05300       -2.14700
H          1.37200        2.57800        0.31200
H          5.22300        5.05400        0.48200
H          6.34200        3.77100        0.29600
H          5.35600        1.25200        0.16400
