21
826-34-6.pdb
C          1.15000        0.08200       -0.25500
O          2.57300        0.06600       -0.16900
C          3.14500       -1.08800       -0.59300
O          2.54900       -2.09700       -0.93700
C          4.62900       -1.04600       -0.60700
C          5.44800        0.07500       -0.01900
C          5.37700       -0.09100       -1.52000
C          4.66600        0.90900       -2.35700
O          3.94600        1.77900       -1.89800
O          4.94000        0.72100       -3.67600
C          4.27500        1.65500       -4.52800
H          0.81200        1.11600       -0.13600
H          0.73000       -0.52000        0.55700
H          0.80100       -0.28000       -1.22600
H          5.06100       -2.03900       -0.50400
H          6.38000       -0.18400        0.47100
H          4.93900        0.91800        0.43500
H          6.25900       -0.50500       -2.00100
H          4.59100        1.46200       -5.55700
H          4.55000        2.68300       -4.27000
H          3.19100        1.51800       -4.46500
