22
827-54-3.pdb
C          1.00800        0.29500       -0.07200
C          2.31900        0.01800       -0.12400
C          3.06000       -0.19700       -1.37300
C          2.69100        0.43200       -2.56600
C          3.42600        0.24100       -3.73500
C          4.56300       -0.57500       -3.73400
C          5.32000       -0.76500       -4.90100
C          6.45500       -1.57600       -4.89000
C          6.84400       -2.21000       -3.71300
C          6.10100       -2.03000       -2.54400
C          4.95900       -1.21200       -2.53600
C          4.20200       -1.00900       -1.36700
H          0.51300        0.45000        0.88100
H          0.39200        0.36400       -0.96300
H          2.88600       -0.06400        0.80000
H          1.82400        1.09200       -2.60000
H          3.10600        0.74400       -4.64400
H          5.03000       -0.27900       -5.82900
H          7.03500       -1.71000       -5.79900
H          7.72800       -2.84100       -3.70300
H          6.42300       -2.53300       -1.63500
H          4.50600       -1.49700       -0.44400
