22
827-43-0.pdb
C          2.27400       -0.10500       -0.01600
C          0.79700       -0.09400       -0.00600
N          0.05200        1.05500       -0.03200
C         -1.28200        0.71900       -0.01700
N         -1.40900       -0.59400        0.04600
C         -0.13500       -1.10400        0.03200
C         -2.36800        1.70300       -0.03700
C         -2.20600        2.96900       -0.61800
C         -3.25700        3.89000       -0.62500
C         -4.48200        3.55600       -0.05200
C         -4.65900        2.30000        0.52300
C         -3.60900        1.37700        0.52600
H          2.68300        0.91100       -0.02700
H          2.64800       -0.62900       -0.90100
H          2.65900       -0.61200        0.87400
H          0.41200        1.99800       -0.03800
H          0.04000       -2.17200        0.05800
H         -1.27200        3.25100       -1.09600
H         -3.12200        4.86500       -1.08700
H         -5.30000        4.27100       -0.06100
H         -5.61500        2.03300        0.96600
H         -3.76000        0.39600        0.97400
