24
827-36-1.pdb
C          0.85000        0.07900        0.17700
N          2.31700        0.03000        0.09300
C          2.82900        1.39700        0.24600
C          2.89000       -0.91100        1.10900
C          2.38400       -2.33300        0.92700
N          1.96300       -3.51200        0.77600
C          4.42300       -0.94900        1.09000
C          5.16400       -0.64300        2.24600
C          6.55800       -0.74200        2.24600
C          7.23000       -1.13700        1.09200
C          6.51600       -1.41400       -0.07200
C          5.12200       -1.31700       -0.07500
H          0.44600        0.73900       -0.60200
H          0.50700        0.45300        1.14900
H          0.39600       -0.90100        0.00200
H          2.42400        2.04100       -0.54700
H          3.91600        1.44800        0.13600
H          2.55500        1.83700        1.21100
H          2.56600       -0.58000        2.10600
H          4.66400       -0.32600        3.15800
H          7.11900       -0.51900        3.14700
H          8.31300       -1.23300        1.09700
H          7.03900       -1.71000       -0.97600
H          4.57900       -1.53800       -0.99200
