22
828-01-3.pdb
O          1.00700        0.12100       -0.06900
C          2.45000        0.07600       -0.09200
C          2.96200       -1.36400       -0.07300
C          2.58100       -2.13000        1.17000
C          1.37200       -2.84100        1.21700
C          1.02700       -3.57800        2.35000
C          1.88600       -3.61500        3.44600
C          3.08500       -2.90500        3.41500
C          3.43000       -2.15900        2.28400
C          2.89800        0.74800       -1.39100
O          1.83700        1.19500       -2.11300
O          4.05600        0.86600       -1.76000
H          0.74500       -0.21900        0.81000
H          2.81700        0.67500        0.74800
H          4.05600       -1.37500       -0.17800
H          2.57800       -1.90900       -0.94700
H          0.69800       -2.83900        0.36200
H          0.09400       -4.13600        2.37300
H          1.62500       -4.20500        4.32100
H          3.75900       -2.94300        4.26600
H          4.37700       -1.62400        2.27400
H          1.02500        0.96100       -1.59900
