40
82911-69-1.pdb
O          2.82400       -0.14300       -3.26000
C          2.30400        0.10200       -2.18400
O          2.89000        0.71200       -1.12600
C          4.31900        0.89800       -1.13300
C          4.82800        2.03800       -2.02700
C          4.15900        3.38000       -1.73700
C          2.82200        3.72500       -1.86400
C          2.43800        5.02600       -1.53900
C          3.38600        5.96600       -1.10800
C          4.73500        5.61800       -0.98700
C          5.11400        4.32300       -1.30100
C          6.41300        3.69000       -1.24900
C          7.62900        4.18000       -0.79900
C          8.73100        3.32200       -0.78700
C          8.61400        1.99900       -1.24200
C          7.39100        1.50700       -1.71100
C          6.29200        2.35500       -1.69300
O          1.03500       -0.24300       -1.80000
N          0.60500       -1.49100       -2.28300
C          1.39300       -2.58700       -2.13900
O          2.53500       -2.65400       -1.70300
C          0.58300       -3.77700       -2.54200
C         -0.84100       -3.30000       -2.31400
C         -0.71900       -1.80000       -2.20300
O         -1.65700       -1.05900       -1.95900
H          4.81600       -0.05000       -1.38000
H          4.58400        1.10800       -0.08800
H          4.72400        1.81100       -3.09400
H          2.08000        3.01000       -2.20200
H          1.39300        5.31400       -1.62200
H          3.06700        6.97700       -0.86600
H          5.45900        6.35200       -0.65300
H          7.72700        5.19800       -0.43500
H          9.68700        3.67900       -0.41000
H          9.48300        1.34600       -1.21200
H          7.30900        0.47900       -2.04900
H          0.83100       -4.64100       -1.92100
H          0.77300       -4.00600       -3.59700
H         -1.22600       -3.69600       -1.36400
H         -1.51000       -3.60100       -3.12600
