33
83-13-6.pdb
C          4.82400        1.37300       -1.61700
C          3.60400        1.00400       -0.79500
O          3.76700        1.60400        0.50000
C          4.37400        0.81300        1.43500
O          4.54000       -0.39700        1.32100
C          4.87700        1.65700        2.58500
C          4.40600        1.04900        3.88900
O          5.11200        0.65000        4.80200
O          3.03700        0.99400        3.88800
C          2.46700        0.08100        4.83600
C          2.33100       -1.26800        4.15100
C          6.39200        1.82800        2.50200
C          6.95700        3.10500        2.36300
C          8.34300        3.26100        2.28800
C          9.17900        2.14800        2.34500
C          8.63300        0.87500        2.47500
C          7.25000        0.71500        2.55100
H          4.77900        0.93400       -2.61500
H          5.74100        1.03800       -1.12000
H          4.89900        2.46100       -1.70700
H          3.47100       -0.08300       -0.74000
H          2.69800        1.42000       -1.24700
H          4.41200        2.65000        2.53000
H          1.48100        0.46400        5.11600
H          3.06300        0.00500        5.75100
H          1.69100       -1.17900        3.26600
H          1.90500       -2.01400        4.82500
H          3.30500       -1.62400        3.79700
H          6.32800        3.99000        2.31800
H          8.77300        4.25400        2.18900
H         10.25800        2.27200        2.29300
H          9.28100        0.00300        2.52600
H          6.84800       -0.29200        2.66400
