28
83-18-1.pdb
C          1.01900        0.02400       -0.03900
C          2.51000       -0.03200       -0.10400
C          3.34100        1.06900       -0.11000
C          4.67700        0.62800       -0.04200
C          5.85400        1.48500       -0.00700
O          5.79700        2.71400       -0.05000
C          4.64700       -0.76400       -0.03300
C          5.82700       -1.68300       -0.08700
N          3.30300       -1.18700       -0.05900
C          2.82300       -2.54800       -0.03700
C          3.51800       -3.55200        0.65200
C          3.05000       -4.87100        0.67200
C          1.85900       -5.20200        0.03700
C          1.14900       -4.21800       -0.64100
C          1.63800       -2.90800       -0.69600
H          0.68600        1.04500        0.17800
H          0.62800       -0.61700        0.75600
H          0.56800       -0.24200       -0.99700
H          3.01500        2.10400       -0.12800
H          6.82900        0.98200        0.07200
H          6.74300       -1.14600       -0.35500
H          5.69400       -2.46000       -0.84600
H          6.02100       -2.13500        0.88900
H          4.40500       -3.34200        1.23600
H          3.61100       -5.63700        1.20300
H          1.48400       -6.22100        0.07200
H          0.21600       -4.46800       -1.14000
H          1.08500       -2.20400       -1.30500
