20
83-56-7.pdb
O          0.97600        0.05600        0.05200
C          2.34700        0.11600        0.06900
C          2.97200        1.36100        0.08400
C          4.35900        1.42900        0.09300
C          5.11600        0.25400        0.10100
C          4.50300       -1.02200        0.10100
C          5.22400       -2.23900        0.11300
O          6.59000       -2.29200        0.20800
C          4.58300       -3.47500        0.04200
C          3.19700       -3.53000       -0.00500
C          2.45800       -2.34800        0.01800
C          3.08700       -1.08600        0.06500
H          0.62100        0.96000        0.05500
H          2.39700        2.28200        0.07900
H          4.85800        2.39500        0.08500
H          6.19800        0.35400        0.08000
H          6.88800       -1.50000        0.68200
H          5.16800       -4.39100        0.03700
H          2.68900       -4.49000       -0.05500
H          1.37200       -2.41100       -0.01400
