27
83011-43-2.pdb
C          1.22300       -0.79100        0.47000
O          2.65100       -0.81700        0.45800
C          3.18000       -1.01700       -0.77400
O          2.55000       -1.18500       -1.80500
C          4.66400       -1.00100       -0.71600
C          5.36900       -0.83700        0.48100
C          6.76700       -0.83600        0.47600
O          7.40300       -0.69000        1.68000
C          7.48200       -0.98700       -0.72400
O          8.84700       -0.99900       -0.87300
C          9.66900       -0.85100        0.27300
C          6.76200       -1.14800       -1.93100
O          7.51000       -1.29400       -3.07600
C          6.81200       -1.45700       -4.30500
C          5.36400       -1.15800       -1.91600
H          0.89900       -0.47300        1.46400
H          0.82900       -1.79300        0.27500
H          0.84100       -0.07300       -0.26300
H          4.82700       -0.70800        1.41300
H          6.74900       -0.65300        2.39700
H         10.71000       -0.87300       -0.06200
H          9.53700       -1.68700        0.96700
H          9.50900        0.11800        0.75700
H          7.55300       -1.54600       -5.10600
H          6.18900       -0.58400       -4.52700
H          6.21700       -2.37600       -4.30000
H          4.79100       -1.28700       -2.83100
