24
831-61-8.pdb
C          6.24600       -0.26200       -0.97700
C          5.19800        0.65500       -0.36900
O          5.19100        0.43500        1.04500
C          4.41700       -0.58700        1.47900
O          3.50700       -1.12100        0.86600
C          4.93900       -1.09100        2.77500
C          4.34100       -2.23800        3.32800
C          4.88700       -2.80500        4.47500
O          4.36300       -3.93300        5.04500
C          6.00900       -2.24300        5.06800
O          6.57400       -2.81200        6.17700
C          6.59000       -1.10100        4.52900
O          7.70500       -0.55900        5.10100
C          6.06400       -0.51500        3.38800
H          6.33600       -0.10500       -2.05400
H          5.99700       -1.31300       -0.79200
H          7.22100       -0.08700       -0.50800
H          4.21100        0.49600       -0.81500
H          5.47500        1.70100       -0.53700
H          3.47700       -2.68500        2.84000
H          3.59800       -4.21900        4.51600
H          6.01500       -3.59700        6.35400
H          7.90100       -1.14300        5.86200
H          6.55400        0.36200        2.97600
