33
83435-58-9.pdb
C          3.85200       -1.68300        0.70600
C          2.82300       -0.54700        0.67900
C          2.54800       -0.03700       -0.74300
C          1.49900       -1.09000        1.24300
O          3.22100        0.53700        1.56200
C          4.35900        1.23000        1.29500
O          5.12700        0.97300        0.37500
N          4.53900        2.30200        2.13200
C          3.90500        2.44900        3.42500
C          4.14600        3.90800        3.76600
C          5.49500        4.23500        3.12900
C          5.68800        3.19000        2.01100
C          5.87500        3.84400        0.63100
O          7.02500        4.69400        0.63100
H          3.52000       -2.53600        0.10700
H          4.01800       -2.02400        1.73400
H          4.82700       -1.37500        0.32200
H          2.18900       -0.83900       -1.39400
H          3.43900        0.39200       -1.21500
H          1.79700        0.76200       -0.73000
H          1.13300       -1.94200        0.65800
H          0.72200       -0.31500        1.24100
H          1.61700       -1.41000        2.28500
H          4.43100        1.79300        4.12800
H          2.85000        2.17500        3.40700
H          4.13500        4.09700        4.84400
H          3.36600        4.52600        3.30800
H          6.30100        4.14200        3.86700
H          5.50700        5.26500        2.76200
H          6.59000        2.60300        2.24000
H          6.01800        3.10800       -0.16400
H          5.00000        4.44700        0.36100
H          7.80500        4.11100        0.65500
