32
83730-53-4.pdb
C          5.87400       -9.11900       -0.77000
C          6.02900       -7.85900        0.07000
C          7.24200       -7.05100       -0.38500
C          7.41700       -5.77400        0.42900
S          8.82900       -4.80900       -0.11000
N          8.90200       -3.54000        0.77000
O          9.96400       -5.69800       -0.22800
C          8.33900       -4.24200       -1.74000
C          9.43000       -3.45200       -2.46200
C         10.72500       -4.21800       -2.72700
N         11.70500       -3.24100       -3.36900
C         10.53100       -5.42700       -3.70100
O         11.26100       -5.27600       -4.73300
O          9.68200       -6.29800       -3.40000
H          5.00400       -9.69400       -0.43900
H          6.75800       -9.75800       -0.68300
H          5.73500       -8.86900       -1.82700
H          6.13700       -8.13600        1.12500
H          5.12100       -7.25200       -0.01900
H          7.12200       -6.81300       -1.44600
H          8.14400       -7.66900       -0.30400
H          7.58600       -6.01400        1.48400
H          6.53500       -5.13000        0.35400
H          9.26600       -3.77500        1.69700
H          7.46200       -3.60100       -1.59400
H          8.00300       -5.09300       -2.32800
H          9.65300       -2.54700       -1.88400
H          9.01100       -3.10900       -3.41900
H         11.23100       -4.52900       -1.81500
H         11.41000       -3.18300       -4.35800
H         12.59200       -3.75400       -3.46100
H         11.81900       -2.33600       -2.91800
