28
838-57-3.pdb
C          1.30700       -4.45000        0.40400
C          2.06700       -3.46600        1.27600
O          2.99400       -2.76300        0.43600
C          4.21100       -3.35600        0.27800
O          4.62100       -4.31500        0.91600
C          4.89500       -2.77400       -0.92000
C          6.39000       -2.90300       -0.86000
O          7.07900       -1.98300       -0.41900
C          7.06900       -4.14200       -1.36400
C          6.37000       -5.28300       -1.78600
C          7.07100       -6.39800       -2.27000
C          8.47200       -6.37500       -2.32600
C          9.17600       -5.24600       -1.89600
C          8.47100       -4.13900       -1.41700
N          9.20300       -7.53900       -2.84500
O          8.54000       -8.50800       -3.24000
O         10.44200       -7.47800       -2.87200
H          0.58100       -5.02000        0.98700
H          1.99500       -5.14700       -0.08600
H          0.78300       -3.91600       -0.39600
H          2.56800       -3.96900        2.11100
H          1.37900       -2.73000        1.70200
H          4.66200       -1.70700       -0.99400
H          4.49400       -3.24600       -1.82100
H          5.28800       -5.34600       -1.73600
H          6.51100       -7.27400       -2.59500
H         10.26400       -5.20800       -1.92600
H          9.02900       -3.26400       -1.08500
