39
83803-95-6.pdb
C          2.18100        0.16100        1.60000
C          0.68800        0.27500        1.41800
C          0.12600        0.75800        0.23200
C         -1.26300        0.82000        0.07800
C         -2.11100        0.40500        1.11400
C         -1.54300       -0.06300        2.30900
C         -0.15800       -0.13000        2.45900
C         -3.59500        0.37800        0.97900
O         -4.28500       -0.38400        1.66700
N         -4.16100        1.23700        0.04900
N         -5.57400        1.27400       -0.03900
C         -6.16200        2.47300       -0.42000
O         -5.47900        3.43000       -0.76300
C         -7.64400        2.55700       -0.38300
C         -8.22200        3.83000       -0.31900
C         -9.60300        3.98300       -0.22200
C        -10.44700        2.87300       -0.33200
C        -11.83400        3.03500       -0.27600
C        -12.66200        2.06400       -0.82600
C        -12.12500        0.84000       -1.20800
C        -10.77000        0.57000       -0.98200
C         -9.89500        1.60000       -0.59100
C         -8.49200        1.43500       -0.51300
H          2.71800        0.51500        0.71200
H          2.46700       -0.88000        1.77200
H          2.50400        0.76800        2.45000
H          0.76900        1.06100       -0.59700
H         -1.66800        1.16500       -0.87300
H         -2.18900       -0.39900        3.11900
H          0.25400       -0.51300        3.39000
H         -3.67800        2.06100       -0.30200
H         -6.06400        0.56600        0.49700
H         -7.59000        4.71600       -0.34900
H        -10.02200        4.98500       -0.17000
H        -12.27000        3.93300        0.15800
H        -13.71700        2.27800       -0.97000
H        -12.76700        0.09100       -1.66600
H        -10.39400       -0.42700       -1.19800
H         -8.07100        0.44000       -0.62700
