39
83803-96-7.pdb
C          1.65300       -0.04800        2.79500
C          0.39700       -0.05100        1.97100
C         -0.02200        1.10500        1.30600
C         -1.18300        1.09300        0.53700
C         -1.94900       -0.08000        0.40300
C         -1.53200       -1.25400        1.05900
C         -0.37000       -1.22700        1.83800
C         -2.26500       -2.56900        0.93400
O         -1.85500       -3.56600        1.50800
N         -3.39300       -2.60700        0.14300
N         -4.09300       -3.81800        0.05400
C         -5.43800       -3.76800       -0.30100
O         -5.92800       -2.67600       -0.62000
C         -6.25500       -4.99600       -0.26300
C         -7.64100       -4.83300       -0.18600
C         -8.47900       -5.94100       -0.07600
C         -7.95600       -7.23100       -0.19500
C         -8.79100       -8.34500       -0.11100
C         -8.46000       -9.50300       -0.80000
C         -7.14900       -9.67700       -1.21400
C         -6.19300       -8.68900       -0.93200
C         -6.59400       -7.41100       -0.49400
C         -5.72600       -6.29300       -0.39900
H          2.12600        0.93900        2.80200
H          2.37500       -0.76200        2.38600
H          1.42700       -0.31600        3.83200
H          0.55600        2.02300        1.38200
H         -1.49700        1.99900        0.02400
H         -2.83100       -0.03700       -0.21200
H         -0.04000       -2.12900        2.35000
H         -3.88400       -1.79600       -0.23900
H         -3.67500       -4.59400        0.58800
H         -8.08400       -3.83700       -0.22000
H         -9.55700       -5.78800       -0.02200
H         -9.68800       -8.32000        0.50500
H         -9.21700      -10.26300       -0.97900
H         -6.86500      -10.60000       -1.71100
H         -5.14900       -8.90400       -1.14200
H         -4.65500       -6.44400       -0.52000
