24
84-89-9.pdb
N         -1.83200       -2.09500       -0.16200
C         -1.39800       -0.76000       -0.00300
C         -2.37500        0.24100       -0.05600
C         -2.02000        1.58000       -0.02000
C         -0.67400        1.94000        0.02100
C          0.36300        0.97300        0.01100
C         -0.01700       -0.40100       -0.01600
C          1.00500       -1.38000       -0.05100
C          2.35800       -1.04900       -0.04900
C          2.73600        0.28100       -0.02100
C          1.75600        1.28200        0.01000
S          2.34400        2.96400        0.06500
O          1.73700        3.55400        1.43900
O          3.77600        2.94100        0.29100
O          1.76900        3.69000       -1.04200
H         -2.79500       -2.24400        0.12400
H         -1.21500       -2.78400        0.25100
H         -3.42700       -0.02300       -0.12200
H         -2.78900        2.34800       -0.04200
H         -0.45700        3.00700        0.03300
H          0.75800       -2.43700       -0.09100
H          3.11000       -1.83400       -0.07300
H          3.79600        0.52600       -0.02800
H          2.48200        3.63900        2.07200
