30
840-65-3.pdb
C          1.27300       -0.09400       -0.86100
O          2.70300       -0.07900       -0.84800
C          3.24200        1.13500       -0.57500
O          2.61500        2.16000       -0.35200
C          4.73000        1.07300       -0.59400
C          5.42800       -0.10900       -0.86300
C          6.82600       -0.10700       -0.89700
C          7.55200        1.07300       -0.66200
C          8.95600        1.08900       -0.71200
C          9.67700        2.27100       -0.48000
C          8.98200        3.44900       -0.18800
C          7.58400        3.44400       -0.13600
C          6.85400        2.26800       -0.37500
C          5.44800        2.25200       -0.34400
C         11.16300        2.21100       -0.56200
O         11.77800        1.18700       -0.82100
O         11.71800        3.42400       -0.31500
C         13.14600        3.42900       -0.38100
H          0.94600       -1.12900       -0.99400
H          0.89500        0.50000       -1.69900
H          0.87100        0.27400        0.08800
H          4.90000       -1.04000       -1.05400
H          7.34600       -1.03800       -1.11400
H          9.49900        0.17200       -0.93900
H          9.51300        4.37900       -0.00100
H          7.06500        4.37500        0.09100
H          4.90200        3.17000       -0.12900
H         13.49400        4.44400       -0.16700
H         13.48700        3.15200       -1.38400
H         13.56900        2.75500        0.37100
