39
84088-42-6.pdb
C          4.38000       -1.50600       -0.44900
N          3.11300       -0.79800       -0.59100
C          1.92600       -1.47000       -0.16000
C          0.70000       -1.32700       -0.83400
C         -0.45500       -1.96600       -0.36700
C         -0.40400       -2.74100        0.79100
C          0.79900       -2.88100        1.47600
C          1.95400       -2.26000        0.99900
C          3.05200        0.55600       -0.94200
O          1.99000        1.14600       -1.14100
C          4.37900        1.30400       -0.89900
C          4.22500        2.62500       -0.65900
O          5.20600        3.30900        0.05000
N          3.59600        3.44400       -1.60600
C          2.49000        4.30000       -1.18900
C          3.68100        3.03900       -2.96400
C          2.93900        3.58100       -4.01200
C          3.16700        3.16800       -5.33300
C          4.17100        2.24400       -5.63500
C          4.90300        1.65900       -4.61000
C          4.60700        2.01800       -3.29600
C          5.17300        1.24000       -2.16700
O          6.19500        0.56900       -2.25200
H          4.23300       -2.57600       -0.27800
H          4.96000       -1.06500        0.36500
H          4.93500       -1.41600       -1.38700
H          0.63000       -0.73000       -1.74100
H         -1.39200       -1.84900       -0.90100
H         -1.30300       -3.22600        1.16200
H          0.83800       -3.46000        2.39500
H          2.86400       -2.34600        1.58500
H          5.90800        2.68000        0.29300
H          2.56900        4.54200       -0.12300
H          1.52800        3.79800       -1.33900
H          2.49300        5.24900       -1.73200
H          2.15800        4.31100       -3.82700
H          2.55500        3.57600       -6.13400
H          4.35700        1.95700       -6.66600
H          5.66200        0.91100       -4.82200
