32
84311-19-3.pdb
C          2.89100       -0.73700       -1.48600
C          2.54900       -0.12800       -0.11600
C          3.04000        1.32400        0.00800
C          1.02000       -0.12200        0.02700
O          3.06600       -0.95600        0.97000
C          4.40100       -1.11900        1.03300
O          5.23300       -0.63300        0.28100
N          4.78800       -1.97600        2.01900
C          6.18000       -1.96500        2.55000
C          6.49500       -0.57800        3.14200
C          6.28100       -3.04200        3.65900
O          5.22300       -2.90100        4.61300
C          7.30800       -2.35600        1.56000
O          6.92300       -2.67900        0.30600
O          8.48800       -2.41900        1.88700
H          2.44300       -0.16100       -2.30100
H          2.53000       -1.77100       -1.54800
H          3.96700       -0.77800       -1.67500
H          2.61000        1.95600       -0.77500
H          4.12700        1.41200       -0.06900
H          2.76800        1.74200        0.98400
H          0.55100        0.48600       -0.75500
H          0.71600        0.27700        1.00100
H          0.61400       -1.13700       -0.03900
H          4.06100       -2.24500        2.67500
H          5.75800       -0.28600        3.89900
H          6.49200        0.20000        2.37200
H          7.48600       -0.55700        3.61000
H          7.24200       -3.00000        4.18900
H          6.19400       -4.04700        3.22900
H          5.40100       -2.09800        5.13500
H          6.02100       -2.35500        0.11000
