26
84562-48-1.pdb
C          1.03900        0.08600        0.42700
O          2.36400       -0.14900       -0.04000
C          2.95900        0.87700       -0.73200
C          2.57800        2.22500       -0.60300
C          3.21400        3.26700       -1.30500
C          4.27600        2.89900       -2.14400
C          4.68800        1.56700       -2.27400
C          4.03200        0.55900       -1.56600
C          4.48000       -0.84100       -1.72500
O          5.41100       -1.14500       -2.46400
N          2.81900        4.58200       -1.13100
C          1.41700        4.93300       -0.92400
C          3.71200        5.70400       -1.39800
H          0.66300       -0.85000        0.85300
H          0.37700        0.37100       -0.39800
H          1.02000        0.83400        1.22500
H          1.80900        2.49000        0.11100
H          4.80400        3.64500       -2.73300
H          5.52100        1.32400       -2.93200
H          3.93900       -1.61300       -1.15500
H          0.74500        4.07400       -0.83500
H          1.05000        5.53000       -1.76600
H          1.31800        5.53200       -0.01200
H          4.76800        5.42000       -1.45200
H          3.63300        6.43000       -0.58100
H          3.43400        6.20800       -2.33000
