26
85-06-3.pdb
C          0.93200       -0.13100        0.01900
C          2.42700       -0.02600        0.01800
C          3.05100        1.20700        0.01700
C          4.44200        1.24600        0.01600
C          5.20800        0.06100        0.01600
C          4.46700       -1.14200        0.01600
C          5.14800       -2.34500        0.01600
C          6.54200       -2.40300        0.01600
C          7.30200       -1.23200        0.01500
C          8.70500       -1.30600        0.01500
C          9.48500       -0.15200        0.01500
C          8.86900        1.09000        0.01500
C          7.47500        1.17600        0.01500
C          6.64800        0.02400        0.01500
N          3.12100       -1.18600        0.01700
H          0.45700        0.85500        0.01800
H          0.59700       -0.67000        0.91000
H          0.59600       -0.67100       -0.87200
H          2.47900        2.12900        0.01700
H          4.91500        2.22200        0.01500
H          4.57700       -3.27100        0.01700
H          7.02300       -3.37900        0.01500
H          9.20600       -2.27200        0.01500
H         10.56900       -0.22500        0.01600
H          9.46800        1.99700        0.01500
H          7.04200        2.17200        0.01500
