24
85-01-8.pdb
C          3.56500       -0.30100        0.01000
C          2.91300       -1.52400        0.03500
C          1.51600       -1.56900        0.02600
C          0.72000       -0.39600        0.00000
C          1.41300        0.84100       -0.00900
C          2.81900        0.87400       -0.01400
C          0.69700        2.04200       -0.00700
C         -0.69500        2.04200        0.01700
C         -1.41200        0.84300        0.01900
C         -2.81700        0.87600        0.04600
C         -3.56500       -0.29800        0.02800
C         -2.91500       -1.52200       -0.02200
C         -1.51700       -1.56800       -0.03600
C         -0.72000       -0.39500       -0.00600
H          4.65100       -0.25900        0.01300
H          3.48500       -2.44800        0.06400
H          1.05500       -2.55300        0.05200
H          3.34700        1.82500       -0.03000
H          1.21800        2.99700       -0.01500
H         -1.21500        2.99700        0.02900
H         -3.34400        1.82800        0.08000
H         -4.65000       -0.25500        0.04800
H         -3.48800       -2.44400       -0.04900
H         -1.05800       -2.55100       -0.07900
