30
85-55-2.pdb
C          2.52400        0.54500        0.06000
C          1.03200        0.38200        0.06000
C          0.44100       -0.84200        0.39500
C         -0.94600       -0.99000        0.35700
C         -1.75900        0.08300       -0.02600
C         -1.17800        1.32400       -0.30800
C          0.21200        1.46500       -0.28300
C         -3.22500       -0.15700       -0.15100
O         -3.75000       -1.01600        0.55200
C         -4.05600        0.51500       -1.18500
C         -3.44400        0.79900       -2.42500
C         -4.13900        1.43000       -3.45500
C         -5.47800        1.74900       -3.28400
C         -6.11200        1.43700       -2.08100
C         -5.42300        0.81500       -1.01500
C         -6.26100        0.62600        0.20900
O         -6.07400       -0.48400        0.93900
O         -7.17300        1.40200        0.46200
H          3.02900       -0.37200        0.37800
H          2.81600        1.34500        0.74800
H          2.87600        0.79000       -0.94800
H          1.05700       -1.69300        0.68200
H         -1.38800       -1.95400        0.60600
H         -1.78600        2.18800       -0.56600
H          0.65700        2.42400       -0.54100
H         -2.40700        0.52800       -2.61400
H         -3.63600        1.66500       -4.39000
H         -6.03200        2.23700       -4.08200
H         -7.16800        1.69000       -1.97300
H         -5.23200       -0.97200        0.77400
