27
85-52-9.pdb
O          1.98400        0.82400        0.59900
C          2.32900       -0.11900       -0.29200
O          1.94600       -0.07300       -1.45400
C          3.10500       -1.29400        0.19700
C          2.78600       -2.51400       -0.43500
C          3.49500       -3.68500       -0.16000
C          4.53600       -3.66100        0.75900
C          4.85200       -2.47100        1.41400
C          4.15600       -1.28000        1.12600
C          4.53500       -0.07300        1.89800
O          3.62400        0.58200        2.40000
C          5.95300        0.30000        2.15400
C          6.24600        1.05900        3.29500
C          7.56700        1.39700        3.59400
C          8.59900        0.98400        2.75400
C          8.31300        0.24500        1.60600
C          6.99100       -0.08700        1.29800
H          2.39500        0.75300        1.49400
H          1.97600       -2.55200       -1.16500
H          3.23400       -4.61000       -0.66900
H          5.09600       -4.56800        0.97300
H          5.64900       -2.49100        2.15700
H          5.44800        1.38300        3.96200
H          7.79000        1.98200        4.48300
H          9.62900        1.24400        2.99000
H          9.12000       -0.06800        0.94800
H          6.79600       -0.64600        0.38600
