30
85-85-8.pdb
O         -3.26200        0.03200        0.12200
C         -2.06600       -0.21400        0.04200
C         -1.60000       -1.61600        0.03100
C         -0.29900       -1.91700        0.01900
C          0.73800       -0.88600        0.00300
C          2.08800       -1.26300        0.02900
C          3.09600       -0.29600        0.00500
C          2.76700        1.05600       -0.05200
C          1.42800        1.44400       -0.07400
C          0.41300        0.47600       -0.04100
C         -1.01500        0.89400       -0.02400
N         -1.29400        2.16900       -0.03900
N         -2.59700        2.55400        0.01100
C         -2.90100        3.81400        0.55300
C         -1.99800        4.87400        0.46000
C         -2.32300        6.10800        1.01800
C         -3.54600        6.25800        1.65400
C         -4.39300        5.16400        1.69500
N         -4.10200        3.95800        1.15600
H         -2.37100       -2.37700        0.04600
H          0.01400       -2.95800        0.02100
H          2.37100       -2.31200        0.07300
H          4.14100       -0.59900        0.03000
H          3.55100        1.80900       -0.07300
H          1.18300        2.50300       -0.11100
H         -3.33600        1.88300        0.24900
H         -1.04800        4.73400       -0.04300
H         -1.62500        6.93800        0.95400
H         -3.83400        7.20000        2.10300
H         -5.36200        5.22700        2.17900
