35
85006-25-3.pdb
C          3.16700        0.58000       -1.31400
C          2.74800        0.03100        0.05700
C          3.15700        0.96400        1.20500
C          1.21400       -0.08500        0.06900
O          3.26300       -1.31600        0.25700
C          4.61200       -1.51600        0.29300
O          5.45300       -0.63700        0.18200
N          4.89700       -2.83100        0.46600
O          6.27300       -3.16900        0.50500
C          6.47900       -4.51200        0.63200
O          5.57700       -5.33800        0.68800
O          7.81500       -4.74500        0.70200
C          8.31100       -6.09300        0.89800
C          7.94700       -6.99700       -0.28500
C          9.84400       -5.97600        0.95900
C          7.82600       -6.66500        2.23400
H          2.71900        1.56100       -1.50400
H          2.85600       -0.10400       -2.11300
H          4.25000        0.69100       -1.40600
H          2.70700        1.95600        1.09200
H          4.24000        1.10400        1.26600
H          2.84300        0.54900        2.17000
H          0.73800        0.89100       -0.08200
H          0.85500       -0.49700        1.01900
H          0.86200       -0.76200       -0.71800
H          4.21100       -3.57400        0.53000
H          8.30600       -6.56700       -1.22700
H          6.86500       -7.12100       -0.39400
H          8.38300       -7.99600       -0.17400
H         10.24400       -5.54400        0.03400
H         10.31600       -6.95200        1.11400
H         10.15500       -5.31100        1.77300
H          6.73800       -6.78500        2.26200
H          8.08500       -5.99100        3.05800
H          8.26900       -7.64600        2.43500
