33
85275-45-2.pdb
C          3.86200       -0.34500        2.12700
C          2.81400        0.48200        1.36900
C          2.08200       -0.34500        0.30000
C          1.76500        0.95900        2.38900
O          3.40700        1.68400        0.80000
C          4.35900        1.55400       -0.16900
O          4.77500        0.48000       -0.58600
N          4.83300        2.75800       -0.64700
C          4.62300        4.04400        0.01900
C          5.84100        4.96400       -0.14500
C          7.13600        4.15300       -0.08800
C          7.19700        3.11400       -1.21900
O          7.88500        1.95800       -0.73700
C          5.79900        2.74600       -1.74400
H          3.40700       -1.21600        2.61100
H          4.34900        0.26300        2.89700
H          4.65900       -0.71400        1.47600
H          1.58900       -1.21800        0.74000
H          2.75200       -0.71200       -0.48100
H          1.32400        0.26400       -0.20500
H          1.25500        0.11200        2.86200
H          1.00800        1.59000        1.91000
H          2.22600        1.56500        3.17700
H          4.42800        3.87300        1.08500
H          3.73400        4.50900       -0.41500
H          5.83300        5.74000        0.62800
H          5.78600        5.48200       -1.11100
H          7.21400        3.65900        0.88900
H          8.00600        4.81700       -0.15900
H          7.79000        3.50300       -2.05400
H          7.23700        1.41300       -0.25000
H          5.81700        1.77100       -2.24000
H          5.45600        3.48400       -2.47900
