39
85650-52-8.pdb
C          0.87200        0.51200       -0.15000
N          2.30200        0.75900       -0.19000
C          2.66900        2.13700        0.15200
C          4.19400        2.42200        0.14800
N          5.00600        1.66100       -0.83600
C          4.47500        0.38900       -1.36100
C          2.92200        0.43500       -1.48300
C          5.01400       -0.82500       -0.59900
C          4.22700       -1.63900        0.23300
C          4.76700       -2.74500        0.89300
C          6.10800       -3.05900        0.73200
C          6.91300       -2.26200       -0.08300
C          6.37400       -1.15500       -0.75300
C          7.23700       -0.30700       -1.65600
C          7.41000        1.12200       -1.20100
C          8.73600        1.61200       -1.17400
C          9.01200        2.89800       -0.75100
C          7.94300        3.66800       -0.36500
N          6.66300        3.24000       -0.39400
C          6.36300        1.97900       -0.81400
H          0.55600        0.41000        0.89400
H          0.62600       -0.44100       -0.63300
H          0.28500        1.30100       -0.62300
H          2.28200        2.38800        1.14800
H          2.18400        2.83100       -0.54900
H          4.58400        2.23400        1.15500
H          4.29100        3.49800       -0.05300
H          4.80100        0.29400       -2.40500
H          2.56900       -0.53600       -1.85400
H          2.63300        1.18100       -2.23700
H          3.17300       -1.43900        0.39600
H          4.13100       -3.36100        1.52100
H          6.53200       -3.91700        1.24800
H          7.96500       -2.51700       -0.19000
H          6.85000       -0.32200       -2.68200
H          8.22100       -0.79200       -1.73000
H          9.56400        0.97300       -1.48200
H         10.02400        3.28100       -0.72400
H          8.08300        4.68600       -0.01500
