30
85838-94-4.pdb
C          3.50400        0.05900        1.44300
C          2.79500       -0.05200        0.08600
C          2.91600       -1.45300       -0.52900
C          1.29900        0.22700        0.31400
O          3.26500        0.97800       -0.82600
C          4.57000        0.95600       -1.23200
O          5.37000        0.08200       -0.91200
N          4.91900        2.01400       -2.04800
C          3.98600        3.01800       -2.54700
C          4.55200        4.42800       -2.34100
C          6.00000        4.51200       -2.73000
C          6.75100        3.41000       -2.86900
C          6.25900        2.01300       -2.61900
H          3.11600       -0.67400        2.15800
H          3.36500        1.06100        1.86700
H          4.58300       -0.09400        1.36600
H          2.47000       -2.21400        0.12200
H          3.95400       -1.75200       -0.70100
H          2.41800       -1.49100       -1.50300
H          0.86400       -0.48400        1.02500
H          0.73700        0.15800       -0.62500
H          1.13900        1.24100        0.70000
H          3.00700        2.93800       -2.06700
H          3.84000        2.81800       -3.61700
H          4.46200        4.71500       -1.28700
H          3.96800        5.14400       -2.92900
H          6.43700        5.49600       -2.88500
H          7.79700        3.50500       -3.15200
H          6.95800        1.50200       -1.94700
H          6.22500        1.45200       -3.56000
