43
85872-53-3.pdb
C          1.01600       -0.69600       -2.63300
C          2.53600       -0.70900       -2.64800
C          3.11000       -0.61000       -1.23400
N          4.56900       -0.59000       -1.24100
C          5.21000        0.66500       -1.31600
O          4.55600        1.70800       -1.41500
N          6.61300        0.67900       -1.27000
C          7.32100        1.95600       -1.24700
C          7.78300        2.45600       -2.61900
C          6.65200        2.75800       -3.59200
C          7.29200       -0.52000       -1.23600
N          8.64400       -0.71500       -1.19900
C          8.81100       -2.03300       -1.22800
N          7.58300       -2.66400       -1.22700
C          6.62500       -1.70100       -1.23400
C          5.21900       -1.82500       -1.23400
O          4.65500       -2.91700       -1.23100
C         10.07100       -2.78000       -1.23700
C         11.20800       -2.27000       -0.60100
C         12.39800       -3.00500       -0.57700
C         12.46700       -4.25000       -1.19900
C         11.34900       -4.76300       -1.85100
C         10.15900       -4.03300       -1.86900
H          0.62700       -0.77400       -3.65300
H          0.63700        0.23300       -2.19500
H          0.62100       -1.53700       -2.05300
H          2.90000        0.12300       -3.26100
H          2.88400       -1.63100       -3.13000
H          2.76500       -1.46100       -0.63500
H          2.73500        0.29400       -0.74000
H          8.19400        1.85100       -0.59100
H          6.68000        2.71400       -0.78000
H          8.46400        1.73000       -3.07600
H          8.35600        3.38000       -2.46900
H          6.08000        1.85800       -3.83400
H          7.06000        3.15300       -4.52800
H          5.96800        3.50900       -3.18200
H          7.42300       -3.66200       -1.21500
H         11.16800       -1.30000       -0.10800
H         13.27200       -2.60500       -0.06900
H         13.39300       -4.81900       -1.18100
H         11.40100       -5.72900       -2.34600
H          9.30900       -4.45300       -2.40100
