26
86-56-6.pdb
C          1.03900       -0.08900       -0.00600
N          2.45800       -0.15400       -0.35400
C          3.18800       -1.27100        0.25900
C          3.18300        1.06800       -0.34900
C          2.79200        2.13700        0.48300
C          3.49600        3.34100        0.51500
C          4.62200        3.50700       -0.28000
C          5.05400        2.48000       -1.12300
C          6.19700        2.67500       -1.91600
C          6.64500        1.68300       -2.78600
C          5.94000        0.49300       -2.88800
C          4.79600        0.29400       -2.11200
C          4.33600        1.25600       -1.18200
H          0.56100       -1.05600       -0.19800
H          0.51800        0.65000       -0.62500
H          0.88300        0.14400        1.05400
H          2.49600       -2.06000        0.57800
H          3.76300       -0.96200        1.13800
H          3.86400       -1.74400       -0.46000
H          1.93700        2.04700        1.14600
H          3.16400        4.14600        1.16600
H          5.15400        4.45500       -0.24100
H          6.74800        3.61300       -1.86800
H          7.53200        1.84800       -3.39000
H          6.27200       -0.28200       -3.57200
H          4.24200       -0.63100       -2.25400
