19
86-53-3.pdb
N          3.22000        1.55900        0.00500
C          2.35500        0.78400        0.01000
C          1.28300       -0.17200        0.01100
C          1.61800       -1.53400        0.01100
C          0.61800       -2.50100        0.00100
C         -0.72000       -2.11200       -0.01000
C         -1.08100       -0.75500       -0.00600
C         -2.43500       -0.37900       -0.01500
C         -2.80800        0.96500       -0.00800
C         -1.83300        1.95300        0.00800
C         -0.48300        1.59800        0.01400
C         -0.07400        0.24200        0.00700
H          2.66100       -1.84600        0.01800
H          0.87900       -3.55700        0.00000
H         -1.48800       -2.88400       -0.02100
H         -3.21600       -1.13600       -0.02700
H         -3.86000        1.23800       -0.01500
H         -2.11700        3.00200        0.01500
H          0.25100        2.40300        0.02700
