22
86-74-8.pdb
N          0.00200        1.61500        0.00700
C         -1.13300        0.83700       -0.00100
C         -2.48300        1.20700       -0.01400
C         -3.43500        0.18200       -0.01400
C         -3.05000       -1.15600        0.00300
C         -1.69600       -1.50700        0.01300
C         -0.71600       -0.49300        0.00700
C          0.71500       -0.49400        0.00200
C          1.69300       -1.51000       -0.00900
C          3.04800       -1.16100       -0.01300
C          3.43600        0.17700       -0.00200
C          2.48600        1.20300        0.01000
C          1.13500        0.83500        0.00700
H          0.00200        2.62400        0.00700
H         -2.78800        2.24800       -0.02500
H         -4.49300        0.43600       -0.02600
H         -3.80600       -1.93700        0.00600
H         -1.40300       -2.55300        0.02500
H          1.39900       -2.55500       -0.01800
H          3.80300       -1.94300       -0.02600
H          4.49400        0.42800       -0.00300
H          2.79300        2.24400        0.01800
