24
86-87-3.pdb
O          2.89700        0.15100       -1.33000
C          2.35600       -0.54600       -0.30700
O          1.27900       -1.11700       -0.43300
C          3.10400       -0.51300        1.01000
C          4.60700       -0.33900        0.90000
C          5.38700       -1.50300        0.77800
C          6.76400       -1.42200        0.60600
C          7.37900       -0.17600        0.53500
C          6.63000        1.00600        0.64500
C          7.27000        2.25200        0.54100
C          6.54600        3.44000        0.62900
C          5.17500        3.39700        0.83500
C          4.52600        2.16600        0.94500
C          5.22900        0.94100        0.84500
H          3.76000        0.56700       -1.14200
H          2.90300       -1.46600        1.51900
H          2.66000        0.25900        1.64600
H          4.92200       -2.48700        0.81100
H          7.35700       -2.32900        0.51400
H          8.45600       -0.13500        0.38700
H          8.34500        2.30700        0.37900
H          7.05600        4.39600        0.53700
H          4.60700        4.32100        0.91000
H          3.45100        2.19000        1.10800
