18
86-96-4.pdb
O          3.08800        1.13300        0.00100
C          1.96900        0.62900        0.01000
N          1.78600       -0.72400        0.05400
C          0.57900       -1.37900        0.02800
O          0.50000       -2.60300        0.02100
C         -0.62300       -0.52400        0.00900
C         -1.90600       -1.07700        0.02100
C         -3.01600       -0.23200        0.02200
C         -2.84200        1.15400        0.00400
C         -1.55700        1.70400       -0.01900
C         -0.44800        0.86000       -0.01300
N          0.84200        1.39600       -0.02600
H          2.61700       -1.29300        0.07400
H         -2.04000       -2.15700        0.03400
H         -4.01900       -0.65500        0.03800
H         -3.71100        1.80800        0.00900
H         -1.44000        2.78400       -0.03400
H          0.98700        2.39700       -0.05500
