19
86-95-3.pdb
O          0.95500        0.09700        0.21100
C          2.31500       -0.07700        0.19700
C          2.87700       -1.29200        0.15500
C          4.35800       -1.38900        0.10200
O          4.90400       -2.48600        0.10800
C          5.13000       -0.12400        0.02200
C          6.52200       -0.14700       -0.11000
C          7.22100        1.05600       -0.19300
C          6.53400        2.26900       -0.12800
C          5.14200        2.28700        0.01000
C          4.42500        1.09000        0.06600
N          3.03500        1.08100        0.21700
H          0.53100       -0.77700        0.17100
H          2.32800       -2.22200        0.14600
H          7.05400       -1.09400       -0.15300
H          8.30300        1.04800       -0.30500
H          7.08300        3.20600       -0.18500
H          4.62600        3.24100        0.06800
H          2.50600        1.93700        0.11700
