18
86454-13-9.pdb
C         -2.49000        1.14000       -0.02000
C         -1.26400        0.28000        0.00300
C         -1.29500       -1.06100        0.00800
C         -0.06400       -1.84500        0.01600
C          1.11900       -1.21000        0.00200
C          1.16200        0.27400        0.00700
O          2.23200        0.86900        0.01200
N         -0.04900        0.91800        0.01000
C         -0.19500       -3.33400       -0.01400
O          0.88100       -4.03800        0.38800
O         -1.23100       -3.88700       -0.34600
H         -3.40800        0.54200       -0.02800
H         -2.49600        1.77200       -0.91400
H         -2.52100        1.78800        0.86200
H         -2.24000       -1.60000       -0.00500
H          2.09100       -1.68100       -0.03500
H         -0.00500        1.93300        0.01400
H          1.65700       -3.54300        0.69900
