19
868-77-9.pdb
C          1.12300       -0.08700        0.02700
C          2.62300       -0.07000        0.06300
C          3.31500        0.90900        0.66700
C          3.28100       -1.25200       -0.56500
O          2.65500       -2.19800       -1.02300
O          4.63300       -1.16700       -0.50800
C          5.34000       -2.40000       -0.73000
C          5.43100       -2.77500       -2.20800
O          6.16700       -1.78500       -2.92600
H          0.69100        0.75000        0.59000
H          0.73700       -1.01000        0.47100
H          0.76100       -0.01600       -1.00400
H          2.80800        1.73700        1.15300
H          4.39900        0.91400        0.71800
H          4.87200       -3.20300       -0.14900
H          6.34500       -2.24500       -0.33100
H          4.44900       -2.87100       -2.67900
H          5.96000       -3.72600       -2.31500
H          5.67100       -0.95200       -2.83400
