45
86925-97-5.pdb
C          4.22500       -1.01500        0.94100
C          3.12600       -0.03400        0.51000
C          2.48500       -0.42300       -0.83200
C          2.02500       -0.08300        1.58700
O          3.62200        1.33600        0.45500
C          4.64600        1.63000       -0.40000
O          5.19600        0.81200       -1.13400
N          5.00200        2.95400       -0.41500
C          4.24100        4.04700        0.15600
C          4.39100        5.13700       -0.89300
C          5.81700        4.94200       -1.40100
C          6.04800        3.42800       -1.32100
C          7.48000        3.08500       -0.82400
O          7.69000        2.53300        0.26200
N          8.53900        3.42100       -1.64600
C          8.50100        4.07300       -2.94000
C          9.73000        3.53000       -3.64600
C         10.75300        3.36200       -2.52700
C          9.91600        3.11000       -1.26600
C         10.40600        4.03300       -0.15400
O         10.04800        5.20100       -0.00800
H          3.83900       -2.03700        1.01500
H          4.63400       -0.72700        1.91600
H          5.07000       -1.04100        0.24900
H          2.03200       -1.41800       -0.78600
H          3.20600       -0.42700       -1.65200
H          1.70700        0.29900       -1.10800
H          1.62900       -1.10100        1.70200
H          1.18900        0.57900        1.33900
H          2.40900        0.24200        2.56000
H          4.72000        4.33800        1.09700
H          3.19500        3.78300        0.34300
H          4.21600        6.14200       -0.49800
H          3.68600        4.96400       -1.71500
H          6.52400        5.49200       -0.77000
H          5.92400        5.31500       -2.42500
H          5.89100        2.94600       -2.29100
H          8.59100        5.15100       -2.76800
H          7.58100        3.86700       -3.48700
H         10.08100        4.18900       -4.44600
H          9.50500        2.55100       -4.08600
H         11.36300        4.27000       -2.44000
H         11.43700        2.53300       -2.73400
H          9.97600        2.07200       -0.92000
H         11.20700        3.61200        0.47700
