34
87-29-6.pdb
N         -1.25100       -1.72500       -1.94900
C         -0.42800       -0.69600       -1.44800
C         -0.99900        0.57100       -1.25700
C         -0.28600        1.59800       -0.63500
C          0.99700        1.36500       -0.15100
C          1.56500        0.09700       -0.28100
C          0.85200       -0.94100       -0.90700
C          1.48000       -2.28200       -1.05600
O          1.19800       -3.06200       -1.95500
O          2.36300       -2.49600       -0.05000
C          3.03300       -3.76100       -0.05500
C          4.50700       -3.50000       -0.02500
C          5.35400       -3.90700       -0.98500
C          6.81200       -3.71400       -0.96300
C          7.54600       -3.68200        0.23000
C          8.93800       -3.55900        0.20800
C          9.61400       -3.47800       -1.00700
C          8.89700       -3.52000       -2.20200
C          7.50500       -3.64100       -2.18000
H         -1.95000       -1.40900       -2.61300
H         -0.70400       -2.51000       -2.31700
H         -2.01300        0.76800       -1.59700
H         -0.74200        2.57800       -0.51500
H          1.55100        2.16200        0.33700
H          2.56700       -0.07300        0.10600
H          2.75400       -4.39900       -0.90200
H          2.74800       -4.29100        0.86100
H          4.86900       -2.95700        0.84400
H          4.96200       -4.42300       -1.86100
H          7.04900       -3.77100        1.19100
H          9.49400       -3.53700        1.14200
H         10.69600       -3.38900       -1.02400
H          9.42200       -3.46400       -3.15200
H          6.96700       -3.67800       -3.12400
