16
87-41-2.pdb
O          2.20200        1.39100       -0.01400
C          1.49000        0.40800       -0.01300
O          1.89700       -0.89700       -0.00900
C          0.78200       -1.81500       -0.00500
C         -0.39300       -0.92300        0.00200
C         -1.74500       -1.22200        0.01700
C         -2.65600       -0.16100        0.01600
C         -2.21000        1.17300       -0.00300
C         -0.84400        1.45900       -0.01700
C          0.03300        0.38900       -0.01100
H          0.83900       -2.43400        0.89400
H          0.83100       -2.43000       -0.90700
H         -2.09600       -2.24900        0.03100
H         -3.72500       -0.36700        0.03000
H         -2.93400        1.98400       -0.00600
H         -0.47800        2.48100       -0.03000
