30
87-85-4.pdb
C          1.01800        0.01000        0.07100
C          2.53200       -0.04300        0.07000
C          3.25600       -1.26300        0.06800
C          2.56600       -2.61000        0.06100
C          4.68100       -1.23500        0.07300
C          5.48400       -2.52000        0.07800
C          5.37600        0.00500        0.07500
C          6.89000        0.04900        0.08200
C          4.65300        1.22200        0.07000
C          5.37400        2.55400        0.06600
C          3.23600        1.19700        0.07000
C          2.44200        2.49200        0.07100
H          0.51800       -0.95500        0.07300
H          0.66200        0.53300       -0.82200
H          0.66400        0.53300        0.96600
H          1.47900       -2.57700        0.05200
H          2.84200       -3.17400        0.95800
H          2.85500       -3.17000       -0.83500
H          4.88000       -3.42900        0.07600
H          6.10600       -2.56700        0.97800
H          6.11500       -2.56900       -0.81600
H          7.36800       -0.93100        0.08700
H          7.24100        0.57000        0.97900
H          7.25100        0.56500       -0.81500
H          6.46300        2.47200        0.06400
H          5.11000        3.12500        0.96200
H          5.10800        3.11900       -0.83300
H          3.06100        3.39100        0.07200
H          1.81600        2.54900        0.96700
H          1.81600        2.55100       -0.82400
