28
87-91-2.pdb
C          5.24900        1.27700       -0.63200
C          4.36800        1.07400        0.58900
O          4.76400       -0.09600        1.32200
C          4.34100       -1.28500        0.80400
O          3.67800       -1.41600       -0.21500
C          4.80200       -2.45800        1.66700
O          4.35900       -3.72800        1.16700
C          6.31700       -2.47200        1.84900
O          6.69400       -3.57900        2.68200
C          7.03600       -2.58900        0.51100
O          7.31300       -3.64900       -0.03000
O          7.39800       -1.35500        0.06500
C          8.54900       -1.34300       -0.79100
C          9.78000       -1.31100        0.10100
H          4.93100        2.15900       -1.19500
H          5.21500        0.41000       -1.29900
H          6.29400        1.40700       -0.33500
H          3.30900        1.01400        0.31500
H          4.47900        1.92900        1.26400
H          4.32300       -2.35400        2.64600
H          4.45700       -3.71500        0.19500
H          6.67000       -1.56700        2.35600
H          6.43500       -4.38300        2.18600
H          8.50200       -0.43300       -1.39900
H          8.56700       -2.19700       -1.47400
H          9.73200       -0.45400        0.78100
H         10.69800       -1.25000       -0.48700
H          9.82400       -2.20500        0.73200
