17
872-53-7.pdb
O          1.47300       -0.22300        0.81700
C          2.29600       -0.04700       -0.07500
C          3.05200       -1.15400       -0.77200
C          2.83700       -1.10300       -2.28100
C          3.10300       -2.52300       -2.77200
C          3.04700       -3.42600       -1.54200
C          2.56200       -2.54600       -0.40100
H          2.56500        0.97600       -0.38900
H          4.11700       -1.04600       -0.53600
H          3.49600       -0.37500       -2.76500
H          1.80600       -0.81400       -2.52000
H          4.08900       -2.59300       -3.24500
H          2.36200       -2.82000       -3.52100
H          4.04900       -3.81300       -1.32100
H          2.38900       -4.28800       -1.69500
H          2.95400       -2.87700        0.56700
H          1.46700       -2.58100       -0.34200
