14
873-62-1.pdb
O          1.03400       -0.16300        0.20100
C          2.39200       -0.13700        0.09300
C          3.09200        1.06600        0.04100
C          4.48100        1.04600       -0.09100
C          5.15800       -0.17300       -0.18100
C          4.44600       -1.37700       -0.12800
C          3.05700       -1.35600        0.02300
C          5.13700       -2.62700       -0.25500
N          5.70100       -3.63300       -0.37200
H          0.69400        0.74300        0.11800
H          2.57700        2.02000        0.10100
H          5.03700        1.98000       -0.13100
H          6.24000       -0.17600       -0.29700
H          2.48700       -2.28100        0.07300
