14
873-83-6.pdb
N          1.64100       -2.26300        0.20900
C          0.79300       -1.19400        0.08900
C         -0.53900       -1.33100        0.04000
C         -1.40100       -0.13700       -0.06200
O         -2.62100       -0.24100       -0.09000
N         -0.75600        1.06200       -0.11800
C          0.59600        1.21400       -0.07200
O          1.13300        2.31600       -0.11200
N          1.32200        0.06100        0.02300
H          1.23600       -3.15700       -0.05700
H          2.55700       -2.11200       -0.20200
H         -1.04300       -2.28600        0.09100
H         -1.31700        1.89700       -0.17400
H          2.32300        0.18200        0.09000
