22
874-23-7.pdb
C          3.21200       -0.68200       -1.07100
C          2.46600        0.01800        0.03900
O          1.31100        0.41200       -0.13900
C          3.17800        0.19800        1.37000
C          2.68400        1.47000        2.07700
C          3.29300        1.62800        3.46800
C          2.96500        0.41300        4.32700
C          3.50000       -0.86500        3.70100
C          3.01900       -1.01000        2.27300
O          2.66500       -2.10900        1.84100
H          2.63900       -0.60400       -2.00200
H          3.34000       -1.73700       -0.82700
H          4.18600       -0.21100       -1.23500
H          4.25000        0.30800        1.16400
H          1.59100        1.45600        2.18100
H          2.92500        2.35000        1.46800
H          2.89500        2.53300        3.94200
H          4.38000        1.75300        3.38900
H          1.87600        0.33500        4.44200
H          3.38700        0.54000        5.33000
H          3.15600       -1.73000        4.28000
H          4.59600       -0.87100        3.69900
