14
874-24-8.pdb
O         -2.28000        0.00000        0.27200
C         -0.92600        0.01100        0.11400
C         -0.27700       -1.22800        0.03600
C          1.10700       -1.27600       -0.03700
C          1.79900       -0.08200       -0.04000
N          1.20500        1.12600        0.00900
C         -0.17100        1.18800        0.08200
C         -0.84500        2.57800        0.10300
O         -1.98100        2.71200       -0.46500
O         -0.20200        3.53200        0.65900
H         -2.64400       -0.78200       -0.16400
H         -0.84400       -2.15200        0.06500
H          1.63600       -2.22100       -0.07800
H          2.88200       -0.05500       -0.07800
