18
874-14-6.pdb
C         -2.80300        0.64600       -0.05200
N         -1.35100        0.58600       -0.00700
C         -0.61500        1.74500        0.01700
C          0.71700        1.72600        0.02900
C          1.42500        0.43500        0.00500
O          2.65300        0.43900       -0.02100
N          0.63000       -0.69600        0.01300
C          1.26800       -1.99600        0.00500
C         -0.76200       -0.67900        0.00200
O         -1.43600       -1.71100       -0.00500
H         -3.16800        1.67700       -0.04900
H         -3.21100        0.11400        0.81400
H         -3.14700        0.14400       -0.96200
H         -1.15600        2.68600        0.02500
H          1.32300        2.62200        0.04600
H          2.35900       -1.92600       -0.00100
H          0.94100       -2.54800       -0.88200
H          0.95100       -2.55100        0.89400
