18
874-66-8.pdb
C          0.95300       -0.02400        0.00700
C          2.45200        0.03800        0.05100
C          3.06400        1.06000        0.94800
O          2.39600        1.83700        1.62000
C          3.19400       -0.81100       -0.68200
C          4.60900       -0.86900       -0.64500
O          5.29100       -1.71700        0.19400
C          6.61800       -1.57100       -0.03700
C          6.83100       -0.63400       -1.01500
C          5.54800       -0.17800       -1.40200
H          0.47600        0.68900        0.68400
H          0.60700       -1.02300        0.29800
H          0.59000        0.18900       -1.00400
H          4.16500        1.09800        0.97400
H          2.70200       -1.54600       -1.31500
H          7.26800       -2.19700        0.55900
H          7.79100       -0.32300       -1.40500
H          5.32400        0.56300       -2.15700
