20
875-74-1.pdb
N          1.06100       -0.12400       -0.14000
C          2.57600       -0.06400       -0.10200
C          3.10100       -1.23000        0.79200
O          4.33500       -1.38900        0.90800
O          2.11100       -1.83800        1.32600
C          3.11600        0.01100       -1.50800
C          3.31500        1.26700       -2.10700
C          3.79300        1.36700       -3.41500
C          4.06800        0.21500       -4.14600
C          3.85600       -1.03800       -3.57400
C          3.37600       -1.14100       -2.26600
H          0.83300       -0.50200        0.80200
H          0.78900       -0.88700       -0.76500
H          0.59600        0.75400       -0.35100
H          2.81000        0.85900        0.44400
H          3.12400        2.18400       -1.55300
H          3.96800        2.34400       -3.85900
H          4.46300        0.29100       -5.15600
H          4.08600       -1.93800       -4.13900
H          3.24700       -2.13500       -1.83700
