36
87694-49-3.pdb
C          6.72500        1.34100        2.12400
O          5.39600        0.88000        2.37500
N          4.87200        0.32800        1.18200
C          4.29500        1.32600        0.30000
C          4.38800       -0.96900        1.23500
O          3.51600       -1.36500        0.45500
C          4.93800       -1.88200        2.36900
C          4.44200       -3.32400        2.23000
N          6.39500       -1.83500        2.46700
C          7.17000       -2.20100        1.40700
O          6.71400       -2.57300        0.33700
O          8.48400       -2.03600        1.69100
C          9.44300       -2.37100        0.65100
C          9.29600       -1.44000       -0.56300
C         10.83400       -2.13700        1.26100
C          9.34000       -3.85500        0.26700
H          7.23400        1.45500        3.08400
H          6.69000        2.31400        1.62600
H          7.29000        0.63500        1.50900
H          4.30200        2.31300        0.77000
H          3.27500        1.06000        0.01200
H          4.91500        1.35400       -0.60200
H          4.55100       -1.48400        3.31500
H          4.72800       -3.76500        1.26800
H          3.35100       -3.37300        2.29200
H          4.86100       -3.95800        3.01800
H          6.84800       -1.47100        3.29100
H          9.42300       -0.39300       -0.26400
H          8.30900       -1.50400       -1.03000
H         10.03700       -1.67300       -1.33400
H         10.95700       -1.09600        1.57800
H         11.62800       -2.37400        0.54300
H         10.98100       -2.75500        2.15400
H          8.38000       -4.10900       -0.18900
H          9.43300       -4.48800        1.15800
H         10.11900       -4.13700       -0.44700
