20
877-22-5.pdb
C          1.17100       -0.04700       -0.04100
O          2.59800       -0.06200       -0.05500
C          3.22300        1.16000       -0.08400
C          2.57400        2.39700       -0.06600
C          3.31400        3.58200       -0.07500
C          4.70800        3.54200       -0.12100
C          5.37300        2.31000       -0.17000
C          6.85400        2.32100       -0.21600
O          7.40900        1.26300       -0.84200
O          7.51100        3.25600        0.22100
C          4.62600        1.13100       -0.12900
O          5.28800       -0.07400       -0.11300
H          0.81900       -1.08300       -0.05200
H          0.76600        0.44800       -0.93100
H          0.79400        0.42100        0.87500
H          1.49300        2.48000       -0.03200
H          2.80400        4.54300       -0.04100
H          5.27700        4.47000       -0.11600
H          6.75100        0.55500       -1.02500
H          4.70800       -0.68200        0.38900
