28
877-65-6.pdb
C          3.11100        1.41400       -0.61300
C          2.49600        0.09900       -0.07600
C          0.96100        0.21800       -0.13600
C          2.94100       -1.01300       -1.05600
C          2.90500       -0.19400        1.38100
C          3.19700        0.84200        2.28600
C          3.56100        0.57800        3.61300
C          3.63200       -0.73200        4.08600
C          4.04800       -1.02400        5.50200
O          3.00500       -1.68000        6.21000
C          3.31500       -1.77300        3.20900
C          2.95200       -1.50700        1.88200
H          2.87000        1.56000       -1.67300
H          4.20300        1.40700       -0.51900
H          2.73100        2.29600       -0.08700
H          0.61900        0.41000       -1.16000
H          0.59900        1.03900        0.49300
H          0.47400       -0.70200        0.20800
H          2.66400       -0.76200       -2.08700
H          2.47100       -1.97700       -0.84000
H          4.02800       -1.15200       -1.03000
H          3.14900        1.88400        1.98300
H          3.78800        1.41400        4.26900
H          4.28700       -0.10200        6.04100
H          4.94000       -1.65800        5.51300
H          2.16700       -1.29900        5.89600
H          3.34800       -2.80500        3.55600
H          2.70100       -2.35800        1.25400
