19
879-65-2.pdb
O          3.12500        1.08300       -0.37100
C          2.54100       -0.06800        0.04200
O          1.61700       -0.61700       -0.53100
C          3.17500       -0.56600        1.28500
C          2.74100       -1.74000        1.86200
N          3.29500       -2.21900        3.00000
C          4.29200       -1.49000        3.54100
C          4.89600       -1.93200        4.71100
C          5.93300       -1.21600        5.30700
C          6.37500       -0.03600        4.72400
C          5.77500        0.42100        3.54800
C          4.74000       -0.28100        2.94100
N          4.18500        0.19300        1.80300
H          3.84600        1.32800        0.25600
H          1.94000       -2.33300        1.43200
H          4.54800       -2.85600        5.16800
H          6.39000       -1.58100        6.22400
H          7.18400        0.53000        5.18100
H          6.12700        1.34700        3.09800
