30
87999-04-0.pdb
N          1.83500        0.17000        1.05300
C          0.63100       -0.11700        0.53200
S         -0.27200        1.06600       -0.32300
C         -1.51600       -0.08500       -0.57800
C         -1.15900       -1.29700       -0.01900
N          0.07400       -1.29800        0.62000
C         -1.99800       -2.49100       -0.05300
C         -1.90500       -3.43200        0.97700
C         -2.71200       -4.57300        0.97700
C         -3.62800       -4.80000       -0.06000
C         -4.45700       -6.06100       -0.04400
C         -5.63000       -6.02900       -1.02300
C         -5.17900       -5.51000       -2.38200
C         -4.67700       -4.07400       -2.26000
C         -3.70600       -3.88100       -1.12000
C         -2.90000       -2.73000       -1.10000
H          2.33900        0.96200        0.67600
H          2.41400       -0.62900        1.28300
H         -2.42100        0.18700       -1.10100
H         -1.20100       -3.27800        1.79400
H         -2.61900       -5.28600        1.79300
H         -4.84700       -6.23800        0.96500
H         -3.80000       -6.90200       -0.29800
H         -6.42700       -5.38400       -0.63100
H         -6.05300       -7.03500       -1.12400
H         -6.00800       -5.55000       -3.09700
H         -4.38200       -6.15400       -2.77600
H         -5.52900       -3.40200       -2.09600
H         -4.20400       -3.78500       -3.20600
H         -2.97600       -2.02700       -1.92600
