18
88-68-6.pdb
N          0.99500        0.08700        0.01600
C          2.35100       -0.09200       -0.00000
O          2.88100       -0.94000        0.70700
C          3.13600        0.75000       -0.94700
C          4.32700        0.18900       -1.43800
C          5.10700        0.87800       -2.36500
C          4.69400        2.12700       -2.81900
C          3.51600        2.69500       -2.32800
C          2.75000        2.04900       -1.34600
N          1.53100        2.64600       -0.95500
H          0.45200       -0.59200        0.53300
H          0.54700        0.59500       -0.74000
H          4.64000       -0.80000       -1.10700
H          6.02200        0.43200       -2.74500
H          5.28600        2.65900       -3.55900
H          3.20700        3.66500       -2.71200
H          1.54000        3.65900       -1.04800
H          1.26800        2.37200       -0.00700
