20
88-96-0.pdb
N          1.15000        0.07700       -0.26600
C          2.49000        0.06300        0.01400
O          3.09300        1.09000        0.28400
C          3.19300       -1.23600       -0.13500
C          2.88200       -2.03200       -1.25300
C          3.62900       -3.17300       -1.53800
C          4.70700       -3.51900       -0.72900
C          5.01500       -2.74700        0.39300
C          4.25200       -1.60800        0.70800
C          4.49500       -0.92500        2.00400
N          5.79100       -0.84400        2.43900
O          3.57100       -0.52600        2.70100
H          0.66600        0.95600       -0.13000
H          0.59800       -0.75900       -0.39500
H          2.07800       -1.74800       -1.92800
H          3.37600       -3.78600       -2.40000
H          5.29900       -4.40100       -0.96000
H          5.83100       -3.06600        1.03600
H          6.59200       -1.07300        1.86800
H          5.94800       -0.35000        3.30700
