33
880-36-4.pdb
C          0.90200       -0.04100        0.15100
C          2.42200       -0.05000        0.13800
C          2.97300        0.70800       -1.06800
C          4.50200        0.70200       -1.08200
C          5.03800        1.46300       -2.29300
C          6.56700        1.47000       -2.33000
C          7.06600        2.23700       -3.55300
C          8.59300        2.26600       -3.63700
C          9.03600        3.03900       -4.84400
S          9.29600        2.24000       -6.33700
C          9.65300        3.71000       -7.13300
C          9.60100        4.78700       -6.27700
C          9.25300        4.39800       -4.95100
H          0.52800       -0.58900        1.02200
H          0.49900       -0.51700       -0.74900
H          0.51600        0.98200        0.20100
H          2.77700       -1.08700        0.12000
H          2.79300        0.40500        1.06400
H          2.61000        1.74300       -1.04900
H          2.59500        0.25300       -1.99200
H          4.86700       -0.33200       -1.10600
H          4.88200        1.15900       -0.16100
H          4.66900        2.49600       -2.26900
H          4.65300        1.00600       -3.21300
H          6.94200        0.44000       -2.36000
H          6.95900        1.93400       -1.41600
H          6.67900        3.26400       -3.52000
H          6.65400        1.77700       -4.46200
H          8.99000        1.24300       -3.66500
H          9.00500        2.73600       -2.73500
H          9.88300        3.71300       -8.18900
H          9.79500        5.80600       -6.58800
H          9.14500        5.08700       -4.12200
