20
882-26-8.pdb
O          3.65600       -2.28800       -1.48700
N          3.64300       -1.22000       -0.86500
O          3.02500       -1.01000        0.18600
C          4.42200       -0.15100       -1.44400
C          4.49200        1.03900       -0.83200
C          5.25500        2.17100       -1.37900
C          4.80900        3.47700       -1.12700
C          5.50300        4.58400       -1.62800
C          6.66600        4.40300       -2.37500
C          7.13400        3.10500       -2.60500
C          6.43900        1.99100       -2.10800
N          8.37100        2.89900       -3.36900
O          8.97300        3.90400       -3.77200
O          8.73700        1.73200       -3.56700
H          4.88100       -0.46000       -2.36900
H          3.95800        1.23200        0.09800
H          3.90500        3.65000       -0.54300
H          5.13300        5.58900       -1.43300
H          7.19300        5.27300       -2.76100
H          6.82900        0.99100       -2.28200
