27
882-59-7.pdb
C         -0.18900        0.81100        0.05400
O          0.40400       -0.49000        0.10900
C         -1.02200       -0.44900       -0.11400
C         -1.90800       -0.95900        1.01100
C         -2.83900       -0.12400        1.65300
C         -3.84800       -0.65500        2.46000
C         -3.93400       -2.03100        2.65300
C         -2.98100       -2.87300        2.08600
C         -1.97000       -2.33800        1.28700
C         -1.53200       -0.81200       -1.50300
C         -0.86800       -1.73700       -2.32500
C         -1.44000       -2.19600       -3.51400
C         -2.69300       -1.74000       -3.90400
C         -3.36400       -0.80400       -3.12600
C         -2.78300       -0.33700       -1.94800
H          0.02000        1.41500       -0.82100
H         -0.24400        1.36700        0.98000
H         -2.82200        0.94700        1.46700
H         -4.59200        0.00300        2.90000
H         -4.75100       -2.45000        3.23300
H         -3.04600       -3.94800        2.22700
H         -1.26400       -3.01000        0.80200
H          0.09300       -2.13700       -2.00800
H         -0.91300       -2.93400       -4.11500
H         -3.15400       -2.12400       -4.81000
H         -4.35200       -0.45900       -3.41200
H         -3.34200        0.35800       -1.32500
