27
88210-96-2.pdb
C          3.50400       -0.39500       -0.97400
O          2.60700       -0.14000        0.10800
C          3.16800        0.43000        1.22300
C          4.19900        1.38500        1.09300
C          4.81700        1.85600        2.25700
N          5.89000        2.69900        2.42200
C          6.19900        2.85300        3.75900
C          5.25500        2.12400        4.46000
C          4.39700        1.48400        3.52500
C          3.30200        0.61300        3.64100
C          2.69000        0.07600        2.49500
O          1.67300       -0.77900        2.83200
C          0.97600       -1.47300        1.81100
C          7.33200        3.65000        4.16300
O          7.49700        3.71400        5.50200
O          8.08600        4.21200        3.38400
H          3.26000       -1.37700       -1.39000
H          4.56000       -0.42600       -0.68000
H          3.35200        0.35800       -1.75300
H          4.53300        1.73200        0.12100
H          6.42400        3.12000        1.67100
H          5.17600        2.01400        5.53500
H          2.94100        0.32200        4.62600
H          0.23700       -2.11400        2.30200
H          1.64700       -2.13100        1.24800
H          0.42900       -0.78500        1.16100
H          6.82500        3.22000        6.00400
