54
88321-09-9.pdb
C          3.40800       -3.95700       -4.89600
C          4.77200       -4.56600       -4.62400
O          4.90600       -4.82800       -3.22200
C          5.28800       -3.77600       -2.44700
O          5.62400       -2.66700       -2.83700
C          5.17000       -4.13900       -1.02100
O          6.36900       -4.05200       -0.22700
C          5.33300       -3.08900        0.04400
C          4.52900       -3.26700        1.26900
O          3.38700       -2.82800        1.32300
N          5.13600       -3.95600        2.28100
C          4.47500       -4.23400        3.55200
C          3.72200       -5.57800        3.48900
C          2.96700       -5.99200        4.77100
C          1.86200       -5.01200        5.17200
C          2.36000       -7.38900        4.59900
C          5.58300       -4.25600        4.61800
O          6.72900       -4.62100        4.36300
N          5.17800       -3.88100        5.88100
C          6.11900       -3.87200        6.98100
C          5.47000       -3.50300        8.31400
C          4.32900       -4.43600        8.76600
C          4.78800       -5.88400        8.93500
C          3.73600       -3.92500       10.08200
H          3.23800       -3.84300       -5.97000
H          3.31700       -2.97500       -4.42100
H          2.61600       -4.58600       -4.47500
H          5.58500       -3.93000       -4.99100
H          4.85200       -5.53000       -5.13700
H          4.51500       -4.97300       -0.81000
H          5.52200       -2.06400       -0.25100
H          6.09300       -4.28100        2.16200
H          3.78800       -3.40700        3.75600
H          4.45100       -6.36800        3.25400
H          3.01900       -5.56000        2.64600
H          3.68700       -6.05700        5.59300
H          0.94700       -5.17800        4.59400
H          2.15300       -3.96800        5.04400
H          1.61300       -5.14800        6.23100
H          1.59200       -7.39600        3.81600
H          1.89200       -7.72400        5.53100
H          3.12600       -8.12200        4.32600
H          4.29700       -3.39300        5.98700
H          6.90000       -3.14200        6.73800
H          6.60400       -4.85300        7.02900
H          5.07900       -2.48000        8.23900
H          6.25300       -3.48200        9.08400
H          3.53100       -4.41500        8.01500
H          5.61600       -5.95800        9.64700
H          5.11500       -6.31300        7.98300
H          3.96700       -6.50900        9.30400
H          4.48300       -3.92800       10.88300
H          2.89600       -4.55200       10.39900
H          3.36300       -2.90100        9.97000
