27
884-33-3.pdb
O          6.92300       -0.18700        2.39400
C          6.49300        0.33800        1.22300
O          7.26400        0.68300        0.34500
C          4.98800        0.42200        1.15000
C          4.47700        0.97200       -0.18800
C          4.75400        0.11100       -1.43000
C          4.16500       -1.27800       -1.43300
C          2.87900       -1.49900       -1.94700
C          2.37500       -2.79500       -2.05800
C          3.14600       -3.88100       -1.65100
C          4.41500       -3.67100       -1.11400
C          4.92300       -2.37600       -1.00400
C          3.01700        1.38200       -0.14500
O          2.20300        0.60900        0.60200
O          2.57700        2.32900       -0.78300
H          6.21800       -0.40400        3.03000
H          4.66800        1.09800        1.95600
H          4.57600       -0.56900        1.35800
H          5.01200        1.92100       -0.34600
H          5.83400        0.02800       -1.59600
H          4.38300        0.63700       -2.32100
H          2.27500       -0.66600       -2.30400
H          1.39100       -2.95800       -2.49200
H          2.76500       -4.89300       -1.77000
H          5.02200       -4.52100       -0.81300
H          5.93400       -2.23700       -0.62400
H          2.58000       -0.23100        0.92000
