32
886-86-2.pdb
C          2.00500        0.89400        3.25500
C          2.00400       -0.00700        2.03500
O          2.86200       -1.12700        2.27300
C          4.17100       -0.95200        1.94700
O          4.63200       -0.05500        1.26300
C          4.95400       -1.90500        2.76800
C          4.47900       -3.19400        3.03800
C          5.13400       -3.98400        3.98000
C          6.26600       -3.49100        4.63500
C          6.80000       -2.24000        4.30900
N          7.83700       -1.69900        5.07900
C          6.11800       -1.43700        3.39100
C          1.35200        0.10900       -1.67400
S          3.11300        0.10000       -1.94400
O          3.53600        1.16100       -0.80800
O          3.64100       -1.18600       -1.54900
O          3.39400        0.69400       -3.23500
H          1.67300        1.90200        2.99100
H          2.99800        0.95500        3.71300
H          1.32400        0.49600        4.01400
H          2.31300        0.55500        1.15400
H          0.99800       -0.38600        1.83600
H          3.57800       -3.56600        2.55700
H          4.74300       -4.96500        4.23600
H          6.72400       -4.09300        5.41700
H          8.44600       -2.39200        5.50200
H          8.35900       -0.96300        4.61300
H          6.46100       -0.42400        3.19600
H          1.11400       -0.55400       -0.84000
H          0.86800       -0.25400       -2.58400
H          1.02000        1.12700       -1.46400
H          4.13700        0.71800       -0.14900
