26
886-38-4.pdb
O          1.26800        0.33300        0.28900
C          2.30100       -0.27400        0.14700
C          2.16300       -1.94400        0.83100
C          3.19800       -1.21900        0.58500
C          4.62300       -1.29200        0.61800
C          5.23500       -2.46000        1.07700
C          6.62100       -2.56700        1.09100
C          7.40400       -1.50300        0.65000
C          6.80400       -0.31900        0.22000
C          5.41400       -0.20900        0.20700
C          0.74900       -2.27900        0.87800
C          0.19700       -2.98600       -0.19700
C         -1.17600       -3.20100       -0.27000
C         -1.99700       -2.77600        0.77000
C         -1.44100       -2.16300        1.89500
C         -0.06900       -1.90600        1.94800
H          4.63300       -3.29900        1.42100
H          7.08300       -3.48700        1.43700
H          8.48500       -1.59800        0.64500
H          7.42000        0.51500       -0.10700
H          4.96000        0.72800       -0.11500
H          0.82600       -3.33500       -1.01200
H         -1.59700       -3.66800       -1.15600
H         -3.07200       -2.91800        0.70000
H         -2.08300       -1.86000        2.71700
H          0.34600       -1.38800        2.80900
