15
88653-55-8.pdb
C          1.17900       -0.45600        0.45800
C          2.49000        0.07900       -0.07200
O          2.93300       -0.35500       -1.13600
C          3.14300        1.11400        0.72300
S          4.59800        1.82100        0.14900
C          4.71800        2.86300        1.49500
C          3.68000        2.67000        2.38200
C          2.77100        1.66400        1.93600
C          5.77100        3.81300        1.66100
N          6.61600        4.59400        1.81500
H          0.84500       -1.28800       -0.16800
H          0.42000        0.33100        0.42700
H          1.30200       -0.82700        1.47800
H          3.56900        3.22500        3.30700
H          1.88700        1.37000        2.49100
