23
89-25-8.pdb
C         -2.59400       -0.56700        0.06700
C         -1.16700       -0.14400        0.09300
N         -0.78000        1.08900        0.20500
N          0.60200        1.06800        0.13500
C          1.14100       -0.22000       -0.02100
O          2.29500       -0.60100       -0.13500
C         -0.05100       -1.13000       -0.00500
C          1.29400        2.30400        0.15100
C          2.66000        2.39100       -0.14600
C          3.31700        3.62700       -0.15700
C          2.62100        4.79400        0.14500
C          1.26700        4.72700        0.45800
C          0.60900        3.49300        0.45500
H         -3.25000        0.30700        0.01300
H         -2.82400       -1.13900        0.96900
H         -2.76700       -1.19600       -0.81100
H         -0.03400       -1.77300        0.87800
H         -0.12100       -1.70300       -0.93000
H          3.24200        1.50900       -0.39800
H          4.37400        3.67300       -0.40800
H          3.13300        5.75200        0.13600
H          0.71800        5.63200        0.70300
H         -0.44900        3.46900        0.70400
