23
89-74-7.pdb
C          1.08600        0.19000       -0.13000
C          2.57200        0.05100        0.07900
O          3.14900        0.72600        0.92900
C          3.32700       -0.92600       -0.77000
C          2.87200       -1.19300       -2.07200
C          3.56800       -2.06600       -2.91000
C          4.73400       -2.69000       -2.46600
C          5.50500       -3.61200       -3.36300
C          5.18600       -2.43700       -1.16400
C          4.49400       -1.56400       -0.30300
C          5.03000       -1.36000        1.09000
H          0.68600        0.89200        0.60800
H          0.59500       -0.77500        0.01800
H          0.86500        0.59400       -1.12100
H          1.98500       -0.71000       -2.47400
H          3.19700       -2.24500       -3.91700
H          5.03600       -3.69800       -4.34900
H          5.55300       -4.61400       -2.92600
H          6.52100       -3.23200       -3.51000
H          6.09500       -2.92900       -0.81700
H          5.88500       -2.01400        1.29000
H          4.26100       -1.60100        1.83200
H          5.37500       -0.33100        1.22500
