21
89-71-4.pdb
C          2.56000       -0.71600        0.82100
O          2.35600        0.38300       -0.07300
C          3.13500        0.39300       -1.18700
O          3.96500       -0.45600       -1.46200
C          2.81200        1.58400       -2.04700
C          1.76800        2.45500       -1.68100
C          1.41700        3.54100       -2.48700
C          2.10100        3.77300       -3.67300
C          3.15200        2.93500       -4.04300
C          3.52900        1.84200       -3.23900
C          4.69100        1.00000       -3.69600
H          2.46500       -0.34000        1.84300
H          3.54800       -1.17800        0.72200
H          1.78100       -1.46400        0.65000
H          1.20600        2.30100       -0.76200
H          0.60300        4.19900       -2.19000
H          1.82300        4.60800       -4.31000
H          3.68100        3.14000       -4.97200
H          5.14500        1.40200       -4.60800
H          4.36300       -0.01900       -3.92300
H          5.47600        0.98600       -2.93200
