17
89-86-1.pdb
O          2.39000        1.06900        0.81300
C          2.40300        0.01700       -0.03400
O          1.73500       -0.01700       -1.05400
C          3.24400       -1.12900        0.41200
C          2.95200       -2.39100       -0.12800
C          3.69900       -3.51200        0.24300
C          4.74900       -3.36300        1.14500
O          5.50700       -4.42800        1.53000
C          5.05800       -2.12100        1.68900
C          4.30300       -1.00700        1.32300
O          4.59300        0.21400        1.87500
H          3.05100        0.97100        1.53400
H          2.13300       -2.50200       -0.83700
H          3.44600       -4.48000       -0.17900
H          5.19200       -5.22400        1.06900
H          5.88300       -2.04600        2.39100
H          5.46000        0.15100        2.32100
