19
89-84-9.pdb
C          3.22600        1.08200        0.79800
C          2.57600       -0.02800        0.01400
O          1.41700        0.06800       -0.38600
C          3.36700       -1.24400       -0.32800
C          3.01200       -1.93100       -1.50200
C          3.71700       -3.06800       -1.90400
C          4.77000       -3.52500       -1.12000
O          5.49100       -4.62800       -1.47100
C          5.12400       -2.87300        0.05500
C          4.42300       -1.73200        0.45200
O          4.77400       -1.12100        1.62300
H          2.62300        1.99000        0.69800
H          4.21900        1.30000        0.39500
H          3.27800        0.82600        1.85900
H          2.18500       -1.57200       -2.11300
H          3.43000       -3.57400       -2.82100
H          5.14200       -4.97900       -2.30800
H          5.94300       -3.26900        0.64800
H          5.50400       -1.61200        2.03600
