30
890-38-0.pdb
O          1.03900       -0.38300        0.36200
C          2.41800       -0.19300        0.07000
C          3.24100       -1.43800        0.42100
O          3.17500       -1.67700        1.84800
C          2.62700       -2.99600        2.07300
C          1.96400       -3.44000        0.78100
C          2.75800       -2.71100       -0.27200
O          3.86500       -3.53100       -0.66300
N          1.72600       -3.00200        3.21300
C          1.12900       -4.13000        3.73400
N          0.33000       -3.85100        4.74800
C          0.42000       -2.48500        4.90400
C         -0.23600       -1.58100        5.86500
O         -1.02500       -1.98200        6.71200
N          0.10700       -0.22500        5.73800
C          0.94700        0.14000        4.81900
N          1.57600       -0.66700        3.90400
C          1.28500       -1.97200        3.97400
H          0.57400        0.44000        0.12100
H          2.76600        0.66400        0.65700
H          2.51700        0.04000       -0.99500
H          4.29100       -1.23500        0.18300
H          3.47000       -3.64800        2.33300
H          0.91600       -3.12200        0.75200
H          1.99200       -4.53000        0.67500
H          2.17500       -2.51900       -1.17700
H          4.54100       -3.52700        0.03500
H          1.30100       -5.12000        3.33100
H          1.22100        1.20300        4.71400
H          2.21600       -0.29100        3.21000
