23
89007-45-4.pdb
C          3.53000       -0.62400       -0.80800
C          2.46900        0.05200        0.06500
C          1.11200       -0.63700       -0.10900
C          2.89100        0.09100        1.52300
C          3.07400        1.31700        2.17600
C          3.45200        1.36100        3.52500
C          3.64300        0.18400        4.26200
C          3.48200       -1.03700        3.59800
C          3.10900       -1.08600        2.25100
N          4.05900        0.13800        5.61000
C          3.62100        0.96900        6.31500
S          3.07500        2.08600        7.31200
H          3.21100       -0.65300       -1.85500
H          3.72400       -1.65500       -0.49300
H          4.47900       -0.07800       -0.75900
H          2.35600        1.08300       -0.29800
H          1.15600       -1.69900        0.15700
H          0.77900       -0.57200       -1.15100
H          0.34700       -0.16600        0.51800
H          2.92900        2.25400        1.64200
H          3.60200        2.33600        3.98300
H          3.65300       -1.96800        4.13400
H          2.99600       -2.05800        1.77500
