21
89128-08-5.pdb
C          1.08600        0.05800        0.05200
C          2.57100        0.10300        0.05200
N          3.30000        1.20400        0.04200
C          4.61300        0.78300        0.05300
C          4.68300       -0.59500        0.05600
N          3.37800       -1.01500        0.05600
C          2.94400       -2.40400        0.06400
C          2.76100       -2.94200       -1.34600
C          2.28700       -4.38600       -1.33500
N          1.89300       -5.58400       -1.32500
N          5.71100        1.72500        0.05500
O          6.85400        1.24100        0.05400
O          5.44100        2.93400        0.05600
H          0.67200        1.07000        0.04500
H          0.71500       -0.45300        0.94500
H          0.71600       -0.46500       -0.83500
H          5.52700       -1.27100        0.06200
H          2.01400       -2.46400        0.64000
H          3.69800       -2.98000        0.61300
H          3.70600       -2.89000       -1.90100
H          2.03200       -2.34100       -1.90100
