17
90-05-1.pdb
C          1.03800       -0.08200       -0.01400
O          2.45700       -0.11900       -0.03300
C          3.11800        1.08100       -0.04400
C          2.50200        2.33600       -0.03900
C          3.27300        3.50300       -0.05600
C          4.66500        3.42600       -0.07800
C          5.29200        2.18200       -0.08100
C          4.51900        1.02000       -0.06300
O          5.13500       -0.20400       -0.06300
H          0.67500       -1.11400       -0.02400
H          0.64200        0.41600       -0.90600
H          0.66800        0.39300        0.90100
H          1.42300        2.44300       -0.02200
H          2.78400        4.47400       -0.05300
H          5.25900        4.33600       -0.09300
H          6.37600        2.13500       -0.09800
H          6.09500       -0.07400       -0.04900
