25
90-26-6.pdb
C          2.89200        1.38600        0.02200
C          2.46600       -0.06500       -0.15800
C          3.03000       -1.02500        0.91100
C          2.47500       -2.44100        0.68800
N          2.76600       -3.35100        1.66700
O          1.78100       -2.77500       -0.26700
C          4.55300       -1.03400        0.97100
C          5.21100       -0.71000        2.16900
C          6.60500       -0.73200        2.24300
C          7.35900       -1.07200        1.12200
C          6.72000       -1.39000       -0.07400
C          5.32500       -1.37400       -0.15000
H          2.43200        2.00500       -0.75600
H          3.97600        1.50400       -0.06400
H          2.57500        1.77300        0.99500
H          2.74600       -0.39700       -1.16500
H          1.36900       -0.10300       -0.12100
H          2.63600       -0.69700        1.88300
H          3.53200       -3.19700        2.31000
H          2.49100       -4.30700        1.48400
H          4.64400       -0.43200        3.05500
H          7.10600       -0.47900        3.17500
H          8.44400       -1.08800        1.17900
H          7.30700       -1.65000       -0.95100
H          4.84700       -1.62800       -1.09400
