26
90-24-4.pdb
C          0.94600       -0.09900        0.03700
O          2.36700       -0.08300        0.03700
C          2.97500        1.13800       -0.03000
C          2.35300        2.37300        0.04000
C          3.12700        3.53500       -0.05700
O          2.46500        4.73500        0.07500
C          4.53300        3.50800       -0.24400
C          5.23400        4.82400       -0.36800
C          4.57800        5.94300       -1.15100
O          6.30600        5.03100        0.19500
C          5.16300        2.25100       -0.27400
O          6.46300        1.85200       -0.40500
C          7.54300        2.73100       -0.62900
C          4.36300        1.09400       -0.16600
H          0.62400       -1.14500        0.00500
H          0.54200        0.40100       -0.85000
H          0.55100        0.34500        0.95500
H          1.28500        2.44400        0.18900
H          1.50500        4.58500        0.10500
H          3.78700        5.58300       -1.81500
H          5.32600        6.43200       -1.78000
H          4.16700        6.67700       -0.45100
H          8.42500        2.10500       -0.80700
H          7.77300        3.31500        0.26300
H          7.39000        3.33800       -1.52300
H          4.84700        0.11700       -0.19200
