30
90-30-2.pdb
N          1.44300       -0.37900       -0.40600
C          0.63800       -1.31700        0.26200
C          0.90800       -1.75100        1.57000
C          0.20000       -2.81900        2.14200
C         -0.79100       -3.46100        1.40300
C         -1.09900       -3.01900        0.12200
C         -0.39100       -1.95100       -0.44100
C          2.77300        0.00800       -0.14000
C          3.08600        1.37300       -0.06900
C          4.33000        1.79800        0.39200
C          5.22700        0.86700        0.90700
C          4.95400       -0.50700        0.80700
C          5.87900       -1.43600        1.30400
C          5.81700       -2.76600        0.90100
C          4.75500       -3.19400        0.11200
C          3.71300       -2.31600       -0.17700
C          3.78000       -0.94600        0.17800
H          0.99300        0.13700       -1.15600
H          1.68200       -1.27100        2.16300
H          0.44000       -3.15200        3.14700
H         -1.31800       -4.31300        1.82700
H         -1.87100       -3.51800       -0.45900
H         -0.62500       -1.64200       -1.45600
H          2.35100        2.11900       -0.36500
H          4.59000        2.85200        0.37800
H          6.17900        1.21400        1.30300
H          6.68400       -1.12600        1.97000
H          6.60900       -3.45600        1.17300
H          4.73300       -4.20900       -0.27100
H          2.85700       -2.68800       -0.74100
