21
90-33-5.pdb
C         -1.47400        2.90000       -0.02100
C         -1.29700        1.41000       -0.01200
C         -2.34700        0.57500       -0.02200
C         -2.22000       -0.89000       -0.02000
O         -3.21500       -1.60600       -0.00700
O         -0.93500       -1.40600       -0.04000
C          0.19000       -0.55900       -0.02300
C          1.43700       -1.18700       -0.02600
C          2.57800       -0.39700        0.00400
O          3.82600       -0.94400        0.00200
C          2.48000        0.98900        0.03900
C          1.22300        1.60200        0.03600
C          0.05300        0.83200        0.00200
H         -2.53200        3.18500       -0.04000
H         -1.00400        3.34000       -0.90700
H         -1.03300        3.34900        0.87500
H         -3.36900        0.93900       -0.03200
H          1.49400       -2.27000       -0.05000
H          3.74500       -1.91200       -0.03100
H          3.38200        1.59500        0.06600
H          1.18500        2.68800        0.06300
