29
90-49-3.pdb
C          0.96400       -0.07500       -0.02500
C          2.48700       -0.06300        0.01800
C          3.08500       -0.22900        1.43100
C          2.62800       -1.52700        2.12000
O          2.00200       -1.49900        3.18200
N          2.99900       -2.69200        1.47400
C          2.69700       -3.98300        1.79500
N          1.94500       -4.17200        2.90100
O          3.07700       -4.91900        1.10100
C          4.61000       -0.13900        1.47000
C          5.23700        0.35200        2.62800
C          6.62800        0.32900        2.75100
C          7.41200       -0.18700        1.72300
C          6.80900       -0.65300        0.55900
C          5.42000       -0.62200        0.43000
H          0.62400        0.18000       -1.03500
H          0.53300        0.65100        0.67100
H          0.56800       -1.06700        0.21300
H          2.83300        0.89200       -0.39800
H          2.83700       -0.84700       -0.66200
H          2.68900        0.59800        2.03700
H          3.60100       -2.63200        0.66600
H          1.85500       -3.41100        3.56700
H          1.80300       -5.11900        3.22200
H          4.64500        0.74000        3.45600
H          7.10000        0.69800        3.65800
H          8.49300       -0.23000        1.82800
H          7.41800       -1.05600       -0.24600
H          4.99400       -1.00600       -0.49300
