25
90-44-8.pdb
O          0.00400       -2.48300        0.39600
C          0.00300       -1.26900        0.26200
C          1.26900       -0.50000        0.12900
C          2.44300       -1.15400       -0.25300
C          3.59000       -0.40700       -0.52300
C          3.56500        0.98400       -0.40100
C          2.40300        1.63300        0.02100
C          1.24500        0.89400        0.28900
C         -0.00300        1.56300        0.80000
C         -1.25200        0.88700        0.30100
C         -2.42000        1.62000        0.05600
C         -3.57400        0.97000       -0.38200
C         -3.58300       -0.41700       -0.54600
C         -2.42900       -1.15900       -0.28800
C         -1.26600       -0.50500        0.11900
H          2.45500       -2.23500       -0.37200
H          4.49900       -0.90800       -0.84300
H          4.45500        1.56400       -0.63300
H          2.40500        2.71500        0.12400
H         -0.00800        2.61800        0.50500
H          0.00200        1.52300        1.89700
H         -2.43300        2.70000        0.18800
H         -4.47100        1.54600       -0.59800
H         -4.48400       -0.91800       -0.88700
H         -2.43100       -2.23700       -0.43500
