52
90-93-7.pdb
C          1.69600       -1.88700        0.68600
C          2.47800       -0.67400        0.20800
N          3.04600       -0.87500       -1.12700
C          2.16600       -0.74100       -2.29300
C          1.93000       -2.09200       -2.95600
C          4.40300       -1.11800       -1.28400
C          5.09900       -1.96100       -0.40400
C          6.45500       -2.26000       -0.57900
C          7.16400       -1.68000       -1.63000
C          6.50200       -0.82800       -2.51300
C          5.14100       -0.55600       -2.33800
C          8.59500       -1.98100       -1.87300
O          8.99900       -2.04600       -3.03200
C          9.55500       -2.19200       -0.75900
C          9.40400       -1.57000        0.47800
C         10.37600       -1.74200        1.47400
C         11.52600       -2.52100        1.26900
C         11.63900       -3.15800        0.02400
C         10.67700       -2.98900       -0.98300
N         12.53400       -2.60300        2.22200
C         13.25000       -3.86300        2.44600
C         14.64200       -3.83800        1.83300
C         12.77500       -1.50400        3.16500
C         13.26100       -0.25100        2.44600
H          1.30100       -1.70600        1.69100
H          2.32000       -2.78400        0.72600
H          0.84800       -2.10000        0.02800
H          3.25800       -0.42700        0.93900
H          1.81100        0.19600        0.18800
H          2.56300       -0.02900       -3.02200
H          1.19500       -0.33200       -1.98700
H          2.86800       -2.55500       -3.27900
H          1.29200       -1.97400       -3.83800
H          1.43500       -2.78700       -2.27100
H          4.57600       -2.44700        0.41500
H          6.92700       -2.96500        0.09900
H          7.03900       -0.37300       -3.34400
H          4.67500        0.13300       -3.03600
H          8.56000       -0.92000        0.69000
H         10.20600       -1.24800        2.42400
H         12.51400       -3.75700       -0.21300
H         10.82800       -3.46300       -1.95200
H         12.68500       -4.72100        2.06300
H         13.34500       -4.03400        3.52600
H         14.60300       -3.73800        0.74500
H         15.17000       -4.76900        2.06500
H         15.23700       -3.00600        2.22300
H         13.54600       -1.79300        3.88900
H         11.88000       -1.28900        3.75900
H         14.18100       -0.45300        1.88900
H         13.46500        0.54400        3.16900
H         12.52000        0.13000        1.73600
