41
900-91-4.pdb
O          1.23800        2.18800       -0.60800
C          2.58800        2.17700       -0.45400
O          3.19600        3.19000       -0.15900
C          3.17100        0.80600       -0.75400
C          4.74300        0.68800       -0.76100
C          5.22900        1.16300        0.66600
C          4.71700        0.54700        1.83400
C          5.16500        0.91000        3.10800
C          6.15200        1.87700        3.25500
C          6.66300        2.50800        2.13000
C          6.18700        2.17600        0.85700
C          5.12500       -0.83500       -0.96300
C          4.35700       -1.70900       -1.76200
C          4.72800       -3.04600       -1.94700
C          5.88700       -3.54500       -1.36300
C          6.67500       -2.70500       -0.58300
C          6.29900       -1.37200       -0.38900
C          5.37500        1.49700       -1.95500
C          4.61500        2.27300       -2.85300
C          5.21800        3.11800       -3.79100
C          6.59900        3.19100       -3.88100
C          7.38000        2.37000       -3.07600
C          6.77500        1.51500       -2.14800
H          0.85200        1.32900       -0.86100
H          2.76600        0.51700       -1.73200
H          2.73200        0.11500       -0.02200
H          3.97200       -0.24100        1.76700
H          4.74400        0.42900        3.98900
H          6.51600        2.14600        4.24300
H          7.43000        3.27200        2.23200
H          6.59100        2.74400        0.02500
H          3.46000       -1.37400       -2.27200
H          4.11400       -3.69900       -2.56300
H          6.18000       -4.57900       -1.51900
H          7.59200       -3.08300       -0.13200
H          6.95400       -0.75300        0.22100
H          3.53100        2.28700       -2.83800
H          4.59700        3.74600       -4.42600
H          7.06700        3.88800       -4.57100
H          8.46400        2.41700       -3.14200
H          7.42800        0.91500       -1.51800
