29
90290-05-4.pdb
C          4.50000       -0.74200        4.96400
O          4.20100       -0.07600        3.73900
C          4.65400       -0.81800        2.61500
C          4.31200       -0.05200        1.33400
C          4.93200        1.33300        1.23200
C          4.79600        1.64200       -0.24900
C          5.08200        0.31300       -0.95300
C          4.17700        0.06200       -2.16600
O          4.34700        1.12200       -3.09700
C          3.53600        0.95400       -4.25600
N          4.86700       -0.74500        0.11300
H          4.16700       -0.11000        5.79300
H          5.57800       -0.90400        5.05700
H          3.96900       -1.69800        5.01400
H          4.16300       -1.79800        2.59700
H          5.73800       -0.96900        2.68900
H          3.22500        0.00900        1.19600
H          5.98900        1.31700        1.52400
H          4.41500        2.07100        1.85200
H          5.48900        2.42800       -0.56800
H          3.77900        1.99200       -0.46300
H          6.13800        0.25700       -1.23900
H          4.43700       -0.89300       -2.63800
H          3.12700        0.01900       -1.85000
H          3.60100        1.86400       -4.85700
H          2.49000        0.79300       -3.97700
H          3.90200        0.11100       -4.84900
H          5.78000       -1.16700        0.33200
H          4.25100       -1.50800       -0.19400
