29
90719-29-2.pdb
C          1.51200       -0.17000       -2.00700
C          2.86200       -0.14900       -1.36300
C          3.32800       -1.20400       -0.68200
C          4.69600       -1.24400       -0.10000
O          5.31400       -0.21500        0.16200
N          5.19800       -2.51600        0.10900
C          6.41600       -2.72100        0.86000
C          6.72500       -4.17900        0.58300
O          6.09800       -4.44800       -0.66800
C          5.12600       -3.50400       -0.86700
O          4.30700       -3.60900       -1.76700
C          6.32500       -2.34700        2.35800
C          5.22300       -3.10500        3.10900
C          7.66800       -2.55100        3.06400
H          1.33100        0.76600       -2.54400
H          0.72300       -0.28900       -1.25800
H          1.44200       -0.98800       -2.73200
H          3.47700        0.73800       -1.50400
H          2.71500       -2.09000       -0.55800
H          7.19000       -2.09900        0.38800
H          6.31100       -4.87700        1.31500
H          7.80100       -4.36300        0.49900
H          6.08000       -1.28000        2.43200
H          5.42800       -4.17800        3.16900
H          4.24900       -2.96800        2.63000
H          5.13900       -2.73500        4.13700
H          8.00200       -3.59200        3.01100
H          7.59500       -2.27900        4.12300
H          8.44200       -1.92100        2.61300
