23
91-09-8.pdb
C          2.43200        1.44100        0.02300
O          2.32300        0.04100        0.23700
C          2.82400       -0.71000       -0.87500
O          4.25100       -0.59300       -0.96500
C          4.90900       -1.03600        0.22600
C          4.60300       -2.50100        0.54500
O          5.18600       -2.88100        1.79200
C          3.08600       -2.75500        0.54800
O          2.77700       -4.15800        0.64600
C          2.44800       -2.19800       -0.72700
O          1.03000       -2.40500       -0.69300
H          2.12800        1.94800        0.94200
H          1.77000        1.75600       -0.78800
H          3.46500        1.72700       -0.20000
H          2.37800       -0.32400       -1.79900
H          4.64900       -0.38300        1.06700
H          5.98600       -0.91000        0.07700
H          5.06500       -3.13400       -0.22200
H          4.60100       -2.56900        2.51100
H          2.62300       -2.30400        1.43300
H          3.47500       -4.65600        0.18200
H          2.82500       -2.76100       -1.59000
H          0.89500       -3.23900       -0.20000
