23
91-02-1.pdb
O          1.14400        0.00300        0.03200
C          2.37300        0.05700        0.06100
C          3.17200       -1.04600       -0.53800
C          2.65200       -1.74300       -1.63400
C          3.38000       -2.78800       -2.20800
C          4.62000       -3.14900       -1.68000
C          5.13200       -2.47500       -0.57300
C          4.40700       -1.43100        0.00200
C          3.05500        1.20200        0.72400
C          2.43300        1.84600        1.78700
C          3.12100        2.87500        2.42400
C          4.38500        3.23900        1.96600
C          4.91400        2.55800        0.88200
N          4.28100        1.54600        0.25400
H          1.68300       -1.46900       -2.04700
H          2.98000       -3.32100       -3.06600
H          5.18800       -3.96100       -2.12900
H          6.09400       -2.76000       -0.15600
H          4.82000       -0.92700        0.87300
H          1.44800        1.53900        2.12300
H          2.67700        3.38700        3.27200
H          4.94500        4.03600        2.44300
H          5.89100        2.81300        0.48200
