26
91-01-0.pdb
O          1.20300        0.06400       -0.22500
C          2.59000       -0.03200        0.10500
C          3.07500        1.32600        0.60400
C          3.02600        1.68200        1.96200
C          3.52700        2.91200        2.39400
C          4.05200        3.81500        1.47300
C          4.05400        3.50100        0.11600
C          3.56400        2.26700       -0.31700
C          2.85400       -1.20300        1.04000
C          1.82300       -2.05400        1.47100
C          2.08500       -3.11400        2.34200
C          3.38300       -3.34500        2.79100
C          4.42300       -2.52400        2.36100
C          4.16300       -1.46800        1.48600
H          0.95600        1.00200       -0.17100
H          3.11200       -0.26600       -0.83200
H          2.61800        0.99200        2.69900
H          3.51500        3.15900        3.45300
H          4.45500        4.76500        1.81400
H          4.44700        4.21300       -0.60400
H          3.57600        2.04000       -1.38100
H          0.80200       -1.89400        1.13000
H          1.27300       -3.75800        2.66700
H          3.58300       -4.16500        3.47500
H          5.43600       -2.70300        2.71000
H          4.98900       -0.83600        1.16500
