27
91-00-9.pdb
N          1.07100        0.09600       -0.08500
C          2.51500       -0.06500        0.13300
C          3.09800        1.26400        0.61100
C          3.17200        1.60000        1.97400
C          3.73900        2.81000        2.38100
C          4.21300        3.71400        1.43300
C          4.10400        3.41900        0.07700
C          3.54600        2.20600       -0.33300
C          2.86700       -1.26800        1.01200
C          1.89200       -2.12300        1.55900
C          2.25300       -3.21000        2.35800
C          3.59500       -3.47000        2.62300
C          4.57800       -2.65000        2.07800
C          4.21900       -1.56400        1.27500
H          0.93200        0.88300       -0.71600
H          0.65500        0.38100        0.79900
H          2.95500       -0.29500       -0.84800
H          2.80900        0.90900        2.73300
H          3.81700        3.04300        3.44000
H          4.66400        4.65000        1.75200
H          4.45900        4.13200       -0.66400
H          3.47000        1.99400       -1.39700
H          0.83600       -1.95600        1.35700
H          1.48200       -3.85600        2.77100
H          3.87200       -4.31600        3.24500
H          5.62700       -2.85400        2.27700
H          5.00600       -0.93600        0.86100
