21
91-10-1.pdb
C          1.11900       -0.03200        0.05300
O          2.53900       -0.04600        0.03600
C          3.17900        1.16500        0.02100
C          2.54100        2.40800        0.01900
C          3.28900        3.58700       -0.00000
C          4.68500        3.54400       -0.01700
C          5.34200        2.31500       -0.01400
O          6.70300        2.13200       -0.02900
C          7.50000        3.31100       -0.05300
C          4.57900        1.13700        0.00600
O          5.23400       -0.07300        0.01100
H          0.77200       -1.07000        0.04700
H          0.71600        0.45800       -0.83900
H          0.74100        0.43900        0.96700
H          1.46000        2.49400        0.03100
H          2.78000        4.54800       -0.00300
H          5.22400        4.48600       -0.03200
H          8.55100        3.00500       -0.06600
H          7.34100        3.91300        0.84800
H          7.31300        3.89600       -0.95900
H          6.18300        0.15100        0.00200
