21
91-57-6.pdb
C         -3.56500       -0.76700        0.01400
C         -2.16900       -0.22100        0.00200
C         -1.93200        1.15600        0.00800
C         -0.62400        1.64800        0.00400
C          0.47400        0.77300       -0.00000
C          1.79600        1.25000        0.00000
C          2.87400        0.36300        0.00000
C          2.64600       -1.01000        0.00300
C          1.33900       -1.49900        0.00000
C          0.24300       -0.62100       -0.00300
C         -1.07700       -1.10000       -0.00700
H         -4.31100        0.03400        0.02100
H         -3.72200       -1.37900        0.90900
H         -3.73900       -1.38100       -0.87600
H         -2.76200        1.85800        0.01600
H         -0.46800        2.72400        0.00800
H          1.99400        2.31900        0.00100
H          3.89100        0.74500       -0.00000
H          3.48300       -1.70200        0.00700
H          1.17900       -2.57500        0.00400
H         -1.26100       -2.17300       -0.01500
