23
91-52-1.pdb
C          1.14900       -0.37600       -0.34900
O          2.40600        0.16500        0.03300
C          3.02700       -0.41000        1.10700
C          2.56600       -1.49500        1.84300
C          3.32100       -1.97700        2.91300
C          4.52100       -1.35500        3.29700
C          5.22600       -1.97400        4.47100
O          6.37100       -1.37200        4.85000
O          4.79400       -2.96000        5.04100
C          4.96200       -0.22200        2.58600
O          6.08900        0.43600        3.01900
C          6.24400        1.79000        2.57300
C          4.23300        0.19700        1.46400
H          0.82400        0.14900       -1.25100
H          0.39800       -0.20800        0.42900
H          1.23500       -1.43900       -0.59600
H          1.63300       -1.99600        1.61100
H          2.96000       -2.84600        3.46100
H          6.59900       -0.59700        4.29700
H          6.77200        2.34400        3.35300
H          5.29100        2.30900        2.41500
H          6.84900        1.81200        1.66100
H          4.57500        1.01600        0.83700
