35
91-53-2.pdb
C          0.93000        0.02200        0.84000
C          2.43800        0.04800        1.01000
O          2.98400       -1.14200        0.43800
C          4.33900       -1.30900        0.56000
C          5.21800       -0.39200        1.12400
C          6.57700       -0.69300        1.21400
C          7.08900       -1.90100        0.72200
N          8.43300       -2.18600        0.94600
C          9.07500       -3.35300        0.35000
C         10.01600       -2.88200       -0.76700
C          9.88500       -4.03400        1.46300
C          8.07700       -4.33000       -0.21800
C          6.75100       -4.12700       -0.32900
C          5.84800       -5.15600       -0.94200
C          6.20500       -2.83900        0.15600
C          4.83700       -2.52300        0.07300
H          0.47900        0.93100        1.25000
H          0.50000       -0.84500        1.35200
H          0.66000       -0.06100       -0.21700
H          2.67100        0.09900        2.08000
H          2.83800        0.92900        0.49500
H          4.88500        0.56100        1.51900
H          7.24200        0.02400        1.68800
H          9.02800       -1.37300        1.05300
H         10.75500       -2.16500       -0.38900
H          9.46200       -2.38200       -1.57100
H         10.56500       -3.72200       -1.21000
H         10.61100       -3.34000        1.90500
H         10.43700       -4.90300        1.08900
H          9.23200       -4.37500        2.27600
H          8.49500       -5.26800       -0.57900
H          6.40300       -6.04500       -1.26200
H          5.34700       -4.75500       -1.82900
H          5.09200       -5.48900       -0.22400
H          4.13000       -3.22500       -0.35900
