20
91-63-4.pdb
C         -3.46700       -0.74100        0.02100
C         -2.08400       -0.16500        0.00100
C         -1.88300        1.20900       -0.00800
C         -0.57800        1.69000       -0.00800
C          0.49500        0.79200       -0.00200
C          1.83100        1.23300        0.00700
C          2.87500        0.31100        0.00900
C          2.59000       -1.05000        0.00000
C          1.26100       -1.48300       -0.00600
C          0.20000       -0.58600       -0.00400
N         -1.06100       -1.05300       -0.00100
H         -4.23300        0.04200        0.01900
H         -3.60200       -1.34700        0.92200
H         -3.62100       -1.37200       -0.85900
H         -2.72000        1.89800       -0.01100
H         -0.40500        2.76300       -0.01200
H          2.06100        2.29500        0.01300
H          3.90700        0.65300        0.01800
H          3.39600       -1.77900       -0.00100
H          1.04400       -2.54800       -0.01200
