40
91-73-6.pdb
C          1.07400        0.11900       -0.06300
N          0.62000        1.50800        0.10400
C          1.57400        2.43800        0.73600
C          1.91600        3.68300       -0.06700
C          2.15700        4.88700        0.61700
C          2.45100        6.06300       -0.07500
C          2.52300        6.05200       -1.46500
C          2.32400        4.86000       -2.15900
C          2.03500        3.67700       -1.46400
C         -0.74800        1.79800        0.14300
C         -1.71600        0.87100        0.57200
C         -3.07600        1.19200        0.66100
C         -3.52500        2.44100        0.25800
C         -2.60800        3.36600       -0.22200
C         -1.24400        3.04800       -0.26200
C          1.24600       -0.73400        1.18800
C          0.71400       -0.41200        2.44500
C          0.72400       -1.34200        3.49000
C          1.30500       -2.59500        3.31000
C          1.90100       -2.90900        2.09300
C          1.87000       -1.98800        1.04200
H          2.03800        0.14600       -0.59000
H          0.38800       -0.41200       -0.73700
H          2.52800        1.92700        0.93000
H          1.17900        2.73100        1.71800
H          2.10000        4.92000        1.70400
H          2.61500        6.98900        0.47100
H          2.73200        6.97100       -2.00600
H          2.38100        4.85100       -3.24400
H          1.87000        2.76100       -2.02200
H         -1.43300       -0.12600        0.89100
H         -3.77700        0.45700        1.04600
H         -4.58100        2.68900        0.30800
H         -2.94400        4.33700       -0.57500
H         -0.58100        3.80200       -0.67100
H          0.23000        0.54700        2.61600
H          0.25200       -1.09500        4.43800
H          1.28600       -3.32500        4.11400
H          2.36500       -3.88200        1.95100
H          2.31000       -2.27100        0.08800
