22
91510-62-2.pdb
O          1.17600        0.25600        0.53800
C          2.49700        0.06700        0.07200
O          2.88300        0.98400       -0.95600
C          2.39900        0.66800       -2.29300
C          2.80500       -0.75200       -2.70100
O          2.33700       -1.12600       -3.99800
C          2.44700       -1.82900       -1.66200
O          1.07000       -2.22300       -1.72500
C          2.87500       -1.39500       -0.25500
O          4.31700       -1.52700       -0.16800
C          0.88000        0.91800       -2.43300
O          0.15500        0.09900       -1.77800
O          0.52300        1.86000       -3.18600
H          0.57800        0.11800       -0.23300
H          3.11900        0.35900        0.92700
H          2.89700        1.37500       -2.96800
H          3.90000       -0.74500       -2.77500
H          1.38900       -1.34200       -3.88400
H          3.00000       -2.73700       -1.93400
H          0.51500       -1.40200       -1.68500
H          2.44000       -2.06800        0.49200
H          4.69100       -0.71000       -0.55200
