32
92-06-8.pdb
C          1.42500       -0.27100        0.12600
C          0.82200       -0.10300       -1.11700
C         -0.55600        0.11600       -1.20300
C         -1.36300        0.19200       -0.05400
C         -0.72600        0.01700        1.19000
C          0.65000       -0.21600        1.28100
C         -2.81800        0.47300       -0.14100
C         -3.73600       -0.12300        0.73600
C         -5.09700        0.17500        0.66400
C         -5.57000        1.07000       -0.29600
C         -4.69600        1.70100       -1.19400
C         -3.32600        1.38000       -1.09300
C         -5.17700        2.70000       -2.17900
C         -6.21100        3.59900       -1.85800
C         -6.63800        4.57600       -2.76200
C         -6.03400        4.68300       -4.01100
C         -5.01500        3.80200       -4.35900
C         -4.60000        2.81700       -3.45600
H          2.49500       -0.43900        0.19700
H          1.42400       -0.14300       -2.02000
H         -0.99600        0.22500       -2.19300
H         -1.29600        0.08200        2.11400
H          1.11400       -0.34400        2.25500
H         -3.40200       -0.83200        1.49100
H         -5.79100       -0.28900        1.36200
H         -6.63900        1.26800       -0.33200
H         -2.62400        1.88900       -1.75000
H         -6.68600        3.56500       -0.88000
H         -7.43500        5.26100       -2.48300
H         -6.35400        5.45200       -4.70800
H         -4.53800        3.88100       -5.33400
H         -3.80900        2.13700       -3.77000
