30
92-24-0.pdb
C          4.88500        0.69100        0.09200
C          4.88400       -0.69900        0.05300
C          3.67500       -1.39400       -0.01300
C          2.45100       -0.70500       -0.03500
C          1.22600       -1.39000       -0.06800
C         -0.00000       -0.70200       -0.06100
C         -1.22400       -1.39100       -0.04000
C         -2.45100       -0.70600       -0.00900
C         -3.67200       -1.39500        0.05900
C         -4.88300       -0.70200        0.09200
C         -4.88800        0.68900        0.04500
C         -3.68200        1.38800       -0.02100
C         -2.45300        0.70400       -0.03500
C         -1.22800        1.39300       -0.06300
C         -0.00000        0.70700       -0.05900
C          1.22600        1.39400       -0.03700
C          2.45100        0.70600       -0.01000
C          3.67700        1.39000        0.05400
H          5.82500        1.23300        0.15200
H          5.82300       -1.24600        0.07900
H          3.69400       -2.48100       -0.03900
H          1.22500       -2.47800       -0.08200
H         -1.22300       -2.47900       -0.03000
H         -3.68900       -2.48200        0.09400
H         -5.81900       -1.24800        0.15600
H         -5.83000        1.23100        0.06400
H         -3.70600        2.47500       -0.05300
H         -1.23000        2.48100       -0.07100
H          1.22700        2.48200       -0.02500
H          3.69900        2.47700        0.08400
