20
92-44-4.pdb
O          0.98200        0.04300        0.18500
C          2.34800        0.03100        0.12500
C          3.06200        1.22700        0.09500
C          4.46400        1.21200        0.00500
C          5.20600        2.40500       -0.04300
C          6.59600        2.37700       -0.15800
C          7.26600        1.15800       -0.21600
C          6.54600       -0.03600       -0.15300
C          5.14600       -0.02800       -0.04500
C          4.41000       -1.22400        0.00600
C          3.01900       -1.18900        0.08600
O          2.29800       -2.35000        0.11700
H          0.66900        0.95700        0.11400
H          2.53600        2.17700        0.13500
H          4.70200        3.36900        0.00100
H          7.15500        3.30800       -0.20600
H          8.34800        1.13600       -0.31200
H          7.09000       -0.97800       -0.19800
H          4.93000       -2.17600       -0.02400
H          2.90500       -3.10300        0.04600
