22
92-43-3.pdb
O          1.91500        0.03700       -0.13700
C          0.71100        0.06700        0.06100
C         -0.14800        1.29800        0.10400
C         -1.53300        0.72700       -0.18700
N         -1.42900       -0.65300        0.25000
N         -0.09900       -1.02400        0.30600
C         -2.44600       -1.57600        0.42300
C         -3.78600       -1.24300        0.16700
C         -4.82700       -2.15800        0.36900
C         -4.55100       -3.43900        0.83100
C         -3.23500       -3.80000        1.09500
C         -2.20100       -2.87700        0.89600
H          0.15900        2.03100       -0.64600
H         -0.09200        1.73300        1.10700
H         -1.74800        0.76900       -1.26200
H         -2.30200        1.28900        0.35200
H          0.20500       -1.95100        0.03400
H         -4.04900       -0.25200       -0.19400
H         -5.85400       -1.86400        0.16800
H         -5.35600       -4.15100        0.99300
H         -3.00600       -4.79600        1.46600
H         -1.19300       -3.19500        1.14600
