28
92-71-7.pdb
O          0.98000        0.28200       -0.01800
C          0.53800       -1.01700       -0.02700
C         -0.83800       -0.97300        0.04000
N         -1.27500        0.32500        0.09500
C         -0.16300        1.03600        0.05300
C         -0.00400        2.48700        0.07400
C         -1.14100        3.30000        0.21300
C         -1.03100        4.69200        0.23400
C          0.22000        5.29200        0.11300
C          1.35900        4.50100       -0.02800
C          1.24900        3.10700       -0.04700
C          1.54000       -2.07100       -0.11100
C          2.91100       -1.77600       -0.14200
C          3.86300       -2.79600       -0.24200
C          3.45700       -4.12600       -0.31100
C          2.10100       -4.43800       -0.27400
C          1.15000       -3.41800       -0.17300
H         -1.53400       -1.79900        0.04900
H         -2.12500        2.84400        0.30700
H         -1.92300        5.30400        0.34400
H          0.30600        6.37500        0.12800
H          2.33500        4.97000       -0.12500
H          2.15100        2.51100       -0.16000
H          3.25500       -0.74500       -0.09000
H          4.92100       -2.54800       -0.26900
H          4.19600       -4.91800       -0.39400
H          1.78000       -5.47600       -0.32600
H          0.09900       -3.69600       -0.14800
