22
92-70-6.pdb
O          1.19700       -0.49600        0.37800
C          2.34800        0.05400       -0.05800
O          2.78700       -0.15300       -1.17900
C          3.05200        0.92700        0.92800
C          4.24700        1.53300        0.51200
C          4.98800        2.35500        1.37700
C          6.18000        2.96800        0.96100
C          6.91400        3.76900        1.83700
C          6.46900        3.96200        3.14100
C          5.28100        3.36800        3.56800
C          4.52500        2.56700        2.69600
C          3.32200        1.97200        3.10900
C          2.59600        1.16200        2.23100
O          1.42600        0.58900        2.66400
H          0.98300       -0.23500        1.29900
H          4.60900        1.35500       -0.50200
H          6.54700        2.82700       -0.05500
H          7.83500        4.23900        1.50000
H          7.04600        4.57800        3.82600
H          4.95200        3.53400        4.59100
H          2.96200        2.14900        4.11900
H          1.30100        0.80700        3.60700
