22
92-82-0.pdb
C         -3.57900       -0.68900        0.05300
C         -3.57500        0.69900        0.06800
C         -2.36000        1.38400        0.03600
C         -1.14700        0.70500        0.00300
N          0.00400        1.40200       -0.00500
C          1.15200        0.69800        0.00400
C          2.36900        1.37000        0.03100
C          3.58000        0.67800        0.07200
C          3.57500       -0.71000        0.07500
C          2.35900       -1.39400        0.03300
C          1.14700       -0.71400        0.00100
N         -0.00400       -1.41000       -0.01700
C         -1.15100       -0.70700       -0.00600
C         -2.36700       -1.38000        0.01100
H         -4.51800       -1.23800        0.08000
H         -4.51100        1.25100        0.10900
H         -2.35400        2.47100        0.04900
H          2.37000        2.45700        0.03100
H          4.51900        1.22500        0.10700
H          4.51000       -1.26400        0.11400
H          2.35200       -2.48100        0.03700
H         -2.36700       -2.46700        0.00200
