24
92-88-6.pdb
O          2.29100        0.00200        0.03800
C          0.92800       -0.01500        0.02400
C          0.21400       -1.20400       -0.00900
C         -1.18700       -1.16800       -0.03400
C         -1.89500        0.04900       -0.01300
C         -1.13200        1.23100        0.03500
C          0.26700        1.20300        0.04600
C         -3.37900        0.09100       -0.04300
C         -4.16200       -0.91200        0.56300
C         -5.56200       -0.87100        0.53600
C         -6.20200        0.18900       -0.09100
O         -7.56100        0.27900       -0.13400
C         -5.46700        1.19600       -0.69700
C         -4.07000        1.14100       -0.67900
H          2.61100       -0.91500        0.01300
H          0.71900       -2.16500       -0.02300
H         -1.71900       -2.11500       -0.08600
H         -1.61700        2.20400        0.07400
H          0.83200        2.12900        0.07300
H         -3.68800       -1.74200        1.08300
H         -6.12500       -1.66700        1.01200
H         -7.93700       -0.48400        0.33200
H         -5.97500        2.02300       -1.18600
H         -3.52600        1.93600       -1.18300
