14
921-01-7.pdb
N          3.09300       -1.48800       -0.08500
C          2.56300       -0.10600       -0.00000
C          1.03000       -0.07100       -0.05100
S          0.32300       -0.76400       -1.58500
C          3.30500        0.79300       -1.00700
O          2.57700        1.35100       -1.99600
O          4.52200        0.95900       -0.95400
H          4.10900       -1.43200        0.05000
H          2.98400       -1.83200       -1.04000
H          2.84000        0.29100        0.98500
H          0.61300       -0.63700        0.79100
H          0.67500        0.96200        0.04100
H          0.66000       -2.04100       -1.33300
H          1.65200        1.03400       -2.06900
