24
92136-39-5.pdb
C          1.02500        0.09900        0.02200
C          2.55800        0.10500        0.04700
C          3.01900        0.51500        1.45600
C          3.01400       -1.35000       -0.24000
O          3.09200        1.01000       -0.98300
C          2.76800        2.34800       -0.88900
O          2.08100        2.84000       -0.02200
N          3.32600        3.11700       -1.88700
C          3.42300        4.56700       -1.70300
C          4.03900        5.25400       -2.91100
C          4.56800        5.84400       -3.94700
H          0.62400       -0.58000        0.78200
H          0.63700       -0.20700       -0.95200
H          0.62100        1.08900        0.23200
H          2.61300       -0.15800        2.21900
H          2.66600        1.51900        1.69500
H          4.10700        0.53200        1.56000
H          2.61400       -2.04800        0.51200
H          4.10500       -1.46800       -0.24100
H          2.66100       -1.68500       -1.22300
H          3.64100        2.67300       -2.73000
H          4.03700        4.75100       -0.81500
H          2.42000        4.96700       -1.51900
H          4.99900        6.32600       -4.79300
