14
922-65-6.pdb
O          0.95100       -0.10000       -0.00500
C          2.36700       -0.03200       -0.07700
C          2.80000        1.18800        0.67900
C          3.49300        2.20900        0.15400
C          2.90200       -1.28800        0.53900
C          3.71100       -2.16100       -0.07800
H          0.62200        0.73200       -0.38400
H          2.64700        0.03400       -1.13500
H          2.51600        1.23300        1.72900
H          3.80300        2.21700       -0.88600
H          3.76900        3.06200        0.76700
H          2.58400       -1.50000        1.55700
H          4.04400       -2.00800       -1.09900
H          4.04600       -3.05900        0.43200
