26
923-32-0.pdb
N          1.11900        0.17000       -0.20300
C          2.59900        0.00100       -0.05900
C          3.01300       -1.09900        0.92300
S          2.45700       -0.71700        2.62300
S          3.24200       -2.29300        3.69300
C          5.05300       -2.01000        3.61000
C          5.50300       -0.63500        4.11600
N          5.26300       -0.42600        5.57800
C          6.99700       -0.44300        3.83900
O          7.57300        0.33600        4.79400
O          7.60400       -0.88300        2.87500
C          3.18400       -0.31600       -1.44400
O          2.35600        0.11800       -2.43200
O          4.25400       -0.85800       -1.65400
H          0.76900        0.52500        0.69500
H          0.69700       -0.76400       -0.26700
H          3.02300        0.96800        0.23800
H          4.10600       -1.17300        0.93300
H          2.60900       -2.07000        0.61700
H          5.36800       -2.17200        2.57400
H          5.53200       -2.80300        4.19500
H          5.00600        0.17700        3.57500
H          5.63000       -1.24200        6.08200
H          4.24900       -0.49200        5.72500
H          6.86400        0.53500        5.45500
H          1.55600        0.48800       -1.98000
