15
92333-25-0.pdb
N          1.31300        0.79900        1.02600
C          2.42500        0.39900        0.58600
C          3.76500       -0.08200        0.05500
C          4.25100       -1.22800        0.90900
C          3.90300       -2.54800        0.60300
C          4.27800       -3.55600        1.47700
N          4.97300       -3.34400        2.61400
C          5.29500       -2.06500        2.89900
C          4.96700       -0.98800        2.08900
H          4.48900        0.74100        0.07200
H          3.65800       -0.40000       -0.98800
H          3.32200       -2.79300       -0.28100
H          4.01200       -4.59200        1.28500
H          5.83500       -1.92100        3.83100
H          5.23900        0.01700        2.39600
