17
924-49-2.pdb
N          0.95800       -0.04600        0.11000
C          2.44800        0.01700        0.14900
C          2.94200       -1.42800       -0.02600
O          2.34500       -1.92400       -1.24600
C          4.45300       -1.51200       -0.08900
C          4.99200       -0.93700        1.21900
O          4.18900       -0.99100        2.19300
O          6.11600       -0.38800        1.12400
H          0.53700        0.87500       -0.01700
H          0.62200       -0.47500        0.97900
H          0.71600       -0.67000       -0.67400
H          2.71700        0.51900        1.07900
H          2.73500        0.63800       -0.70600
H          2.54500       -2.06600        0.77300
H          2.83900       -2.73700       -1.47400
H          4.83800       -0.95300       -0.94900
H          4.78500       -2.55000       -0.20400
