32
925-15-5.pdb
C          0.78600       -0.77300        0.38000
C          2.17900       -0.44500        0.90400
C          3.17800       -1.50600        0.45700
O          4.51500       -1.20000        0.89600
C          5.02700       -2.01100        1.86800
O          4.37900       -2.78400        2.56000
C          6.52900       -1.85800        1.91900
C          7.16400       -2.87800        2.86400
C          8.66700       -2.92400        2.70600
O          9.31300       -2.17900        1.98900
O          9.17700       -3.95100        3.44200
C         10.51200       -4.36900        3.10600
C         11.51500       -4.00300        4.19400
C         12.90700       -4.50400        3.83000
H          0.06700       -0.01000        0.69000
H          0.44500       -1.74100        0.75900
H          0.78300       -0.81700       -0.71500
H          2.16200       -0.37900        1.99800
H          2.49200        0.54100        0.54200
H          3.22100       -1.52900       -0.63700
H          2.86200       -2.50100        0.78300
H          6.78400       -0.84100        2.22900
H          6.90900       -2.02300        0.90200
H          6.78300       -3.88100        2.63400
H          6.91400       -2.64400        3.90600
H         10.83100       -3.97100        2.13700
H         10.47300       -5.45900        2.99800
H         11.20400       -4.43700        5.15200
H         11.53600       -2.91700        4.34100
H         12.91000       -5.59300        3.70600
H         13.62900       -4.25200        4.61200
H         13.25100       -4.05500        2.89200
