18
925-60-0.pdb
C          0.99800        0.05900       -0.04900
C          2.51500        0.09100       -0.04400
C          3.05000        1.47800        0.30100
O          4.48500        1.47800        0.26900
C          5.02100        1.62000       -0.96900
O          4.40900        1.74400       -2.01800
C          6.49200        1.59300       -0.85100
C          7.25200        1.67900       -1.95100
H          0.64100       -0.94100       -0.31200
H          0.59500        0.76600       -0.78200
H          0.59700        0.31800        0.93600
H          2.88800       -0.22600       -1.02500
H          2.90500       -0.64000        0.67400
H          2.75000        1.75400        1.31800
H          2.64700        2.24900       -0.36800
H          6.92300        1.50200        0.13900
H          6.80700        1.76800       -2.93900
H          8.33400        1.66300       -1.88800
