30
92552-22-2.pdb
N          5.97100        1.08400       -1.34500
C          5.00200        0.55400       -0.73500
C          3.83500       -0.08400       -0.00100
C          4.24100       -1.16700        0.97700
C          4.57400       -0.78300        2.29300
C          4.85200       -1.73200        3.27400
C          4.77300       -3.08400        2.97200
C          4.47900       -3.48200        1.66900
C          4.27400       -2.54000        0.64800
O          4.10300       -2.89600       -0.67100
C          4.58700       -4.20900       -0.99900
C          4.81200       -4.38600       -2.48100
C          6.04900       -4.04800       -3.05000
C          6.29500       -4.28100       -4.40400
C          5.30600       -4.84600       -5.20500
C          4.06900       -5.17600       -4.65400
C          3.82000       -4.94600       -3.29900
H          3.13300       -0.49200       -0.73900
H          3.28200        0.70000        0.53200
H          4.61100        0.27200        2.56300
H          5.11100       -1.41700        4.28200
H          4.94800       -3.83100        3.74200
H          4.41700       -4.55200        1.48500
H          3.86300       -4.96200       -0.65800
H          5.54800       -4.41100       -0.50300
H          6.83600       -3.61700       -2.43400
H          7.26200       -4.02600       -4.83000
H          5.49900       -5.02800       -6.25900
H          3.29900       -5.62000       -5.28000
H          2.85500       -5.22400       -2.88200
