11
927-74-2.pdb
O          1.02400       -0.06700        0.04300
C          2.44700       -0.07200        0.05000
C          2.97000        0.93500       -0.96600
C          4.49000        0.93500       -0.96600
C          5.79400        0.93500       -0.96600
H          0.73700       -0.72100        0.70300
H          2.79300       -1.08300       -0.18900
H          2.79100        0.18000        1.06000
H          2.60000        1.93900       -0.73000
H          2.60000        0.68900       -1.96800
H          6.85900        0.93700       -0.96800
