19
928-97-2.pdb
C          1.61400       -0.66600       -1.15300
C          2.46900       -0.08700       -0.03600
C          3.01000        1.26300       -0.40700
C          4.31800        1.55500       -0.46900
C          4.85100        2.91100       -0.85700
C          5.73400        2.85300       -2.10400
O          5.00200        2.41300       -3.24400
H          1.23100       -1.65100       -0.86500
H          2.19300       -0.78300       -2.07500
H          0.75500       -0.02100       -1.36900
H          3.28200       -0.78700        0.19400
H          1.86300        0.01100        0.87300
H          2.27300        2.03300       -0.63200
H          5.05800        0.79000       -0.23300
H          5.43400        3.30800       -0.01900
H          4.02000        3.60500       -1.03700
H          6.59100        2.18500       -1.95900
H          6.12100        3.85100       -2.32900
H          4.62000        1.54500       -3.01900
