19
928-96-1.pdb
C          1.52500       -0.23800       -1.16100
C          2.38400        0.09300        0.05000
C          3.00200       -1.14100        0.64300
C          4.32100       -1.37100        0.76200
C          5.39300       -0.42000        0.30400
C          6.81300       -0.92700        0.55500
O          7.07200       -1.09200        1.94500
H          1.11200        0.68200       -1.58900
H          0.68800       -0.88900       -0.88700
H          2.11000       -0.74000       -1.93800
H          1.76800        0.58300        0.81300
H          3.14300        0.82200       -0.25400
H          2.31100       -1.89200        1.02000
H          4.64700       -2.30100        1.22500
H          5.26400        0.53100        0.83400
H          5.27800       -0.23900       -0.77200
H          7.53800       -0.20600        0.16200
H          6.98500       -1.88600        0.05700
H          6.82400       -0.26400        2.39100
