19
928-94-9.pdb
C          0.97000       -0.07400        0.16300
C          2.49100       -0.07600        0.12100
C          2.98800        0.20000       -1.29800
C          4.48800        0.21600       -1.40900
C          5.15300        0.44400       -2.55300
C          4.54300        0.70500       -3.89300
O          4.96200        1.98600       -4.33000
H          0.61500       -0.27200        1.17800
H          0.56000       -0.84500       -0.49800
H          0.57100        0.89400       -0.15500
H          2.86200       -1.04700        0.47000
H          2.87300        0.68500        0.81100
H          2.59700        1.17100       -1.62600
H          2.58900       -0.57200       -1.96800
H          5.06300        0.02900       -0.50400
H          6.24200        0.43100       -2.53200
H          3.45000        0.68500       -3.88500
H          4.88900       -0.04000       -4.61400
H          4.62700        2.62300       -3.67500
