19
928-92-7.pdb
C          0.98200        1.20800       -0.05300
C          2.47300        1.22300       -0.06800
C          3.19500        0.58600       -1.00600
C          4.69500        0.60000       -1.02900
C          5.23100        1.20500       -2.32300
C          6.75300        1.21300       -2.33300
O          7.22600        1.78200       -3.54600
H          0.61100        1.79400        0.79400
H          0.60600        0.18600        0.05400
H          0.58000        1.65000       -0.97000
H          2.97300        1.78200        0.71800
H          2.68200        0.03100       -1.78700
H          5.06200       -0.42700       -0.92300
H          5.07700        1.17100       -0.17500
H          4.86100        2.23000       -2.45100
H          4.86300        0.64300       -3.19200
H          7.15800        0.20000       -2.24400
H          7.14400        1.81300       -1.50500
H          6.88900        1.23600       -4.27700
