25
929-17-9.pdb
N          0.92500       -0.08400       -0.03700
C          2.38300       -0.08300       -0.03600
C          2.90600        0.86100       -1.11500
C          4.43300        0.87600       -1.13300
C          4.96700        1.82200       -2.20900
C          6.49400        1.82800       -2.21500
C          7.05700        2.76600       -3.28100
C          8.56800        2.76200       -3.27500
O          9.10000        3.58100       -4.21100
O          9.26700        2.10200       -2.52100
H          0.58800       -0.75000        0.65700
H          0.58500       -0.41500       -0.93900
H          2.74900       -1.10100       -0.21100
H          2.74200        0.23400        0.95000
H          2.53100        1.87700       -0.93400
H          2.53200        0.54900       -2.09800
H          4.80800       -0.13800       -1.31500
H          4.80900        1.18900       -0.15100
H          4.59300        2.83700       -2.02700
H          4.59300        1.51000       -3.19300
H          6.86300        0.80800       -2.38800
H          6.86200        2.13000       -1.22600
H          6.71200        3.78900       -3.09400
H          6.71400        2.44700       -4.27200
H          8.43800        4.05400       -4.75000
