28
93-14-1.pdb
C          1.02900       -0.15400        0.41600
O          2.39400        0.03700        0.06400
C          3.07200        1.03200        0.71700
C          2.71300        1.48700        1.99300
C          3.48800        2.44300        2.65800
C          4.64000        2.94300        2.06000
C          5.00800        2.49800        0.79400
C          4.22300        1.56100        0.10700
O          4.72300        1.23700       -1.12900
C          3.76800        0.91600       -2.13800
C          4.29600        1.36700       -3.50300
O          3.38500        0.96300       -4.53400
C          4.50700        2.89000       -3.54600
O          4.93300        3.32800       -4.83600
H          0.60900       -0.89300       -0.27200
H          0.45900        0.77400        0.30100
H          0.92800       -0.55900        1.42900
H          1.84600        1.09800        2.51500
H          3.20100        2.78000        3.65100
H          5.25400        3.67400        2.58100
H          5.91200        2.88600        0.33000
H          2.79700        1.40400       -1.97000
H          3.61000       -0.16900       -2.15500
H          5.25200        0.87400       -3.71700
H          2.58500        1.51300       -4.45600
H          5.25900        3.20700       -2.81700
H          3.57100        3.41500       -3.33000
H          5.48600        2.62500       -5.22000
