25
93-18-5.pdb
C          0.88000       -0.61300       -0.33900
C          2.38500       -0.80500       -0.38100
O          2.94500        0.12400       -1.30900
C          4.30000        0.04600       -1.50100
C          5.16300       -0.81800       -0.82900
C          6.53000       -0.82000       -1.12100
C          7.05800        0.04100       -2.09000
C          8.42800        0.03100       -2.39600
C          8.94500        0.88800       -3.36600
C          8.09900        1.76900       -4.03600
C          6.73500        1.79200       -3.73800
C          6.19500        0.93000       -2.76900
C          4.82100        0.92000       -2.46000
H          0.42700       -1.29600        0.38600
H          0.43900       -0.80100       -1.32300
H          0.62700        0.41600       -0.06300
H          2.59800       -1.83300       -0.69700
H          2.79100       -0.62500        0.62100
H          4.81100       -1.50800       -0.07000
H          7.17800       -1.50700       -0.58300
H          9.10100       -0.65100       -1.88200
H         10.00600        0.86600       -3.59900
H          8.50200        2.43700       -4.79300
H          6.09200        2.48700       -4.27500
H          4.14300        1.59700       -2.97600
