18
93-35-6.pdb
O         -3.56400        1.15600       -0.00000
C         -2.42200        0.41300       -0.00200
C         -2.46200       -0.98100       -0.00300
C         -1.26600       -1.70900       -0.00400
C         -0.03900       -1.04000       -0.00300
C          1.23000       -1.75100       -0.00100
C          2.37200       -1.05600       -0.00200
C          2.40300        0.41700       -0.00500
O          3.47200        1.01800       -0.01000
O          1.18100        1.07300       -0.00300
C         -0.03100        0.35400       -0.00200
C         -1.21000        1.09200       -0.00200
H         -4.33100        0.56000        0.00500
H         -3.40700       -1.51500       -0.00400
H         -1.30600       -2.79600       -0.00600
H          1.23200       -2.83500        0.00300
H          3.33800       -1.54500       -0.00000
H         -1.18600        2.17700       -0.00100
