26
93-40-3.pdb
C          1.08700       -0.48200        0.03800
O          2.45700       -0.13600       -0.14400
C          3.14600        0.27100        0.96900
C          2.84500       -0.21700        2.24900
C          3.57900        0.18300        3.37000
C          4.63200        1.09000        3.23700
C          5.40600        1.56200        4.44500
C          6.64400        0.78300        4.83700
O          6.99000       -0.25600        4.05200
O          7.31000        1.08100        5.82100
C          4.95500        1.55300        1.95600
C          4.22800        1.15400        0.81800
O          4.71200        1.73700       -0.32200
C          4.08300        1.45500       -1.56300
H          0.65300       -0.64500       -0.95400
H          0.53200        0.33100        0.51800
H          0.98000       -1.41800        0.59400
H          2.04200       -0.93100        2.40700
H          3.30800       -0.21400        4.34800
H          4.73500        1.55600        5.31300
H          5.71000        2.60400        4.28200
H          6.40800       -0.40700        3.28000
H          5.77900        2.25400        1.82300
H          4.59900        2.03800       -2.33300
H          3.03700        1.77900       -1.56600
H          4.19100        0.40000       -1.83000
