20
93-55-0.pdb
C          0.87700        0.00200       -0.44600
C          2.36600        0.05700       -0.75000
C          2.96700        1.40800       -0.40100
O          2.28800        2.33200        0.04500
C          4.43100        1.61600       -0.61500
C          5.27000        0.60500       -1.10000
C          6.63200        0.85400       -1.28800
C          7.16200        2.10900       -0.99400
C          6.33500        3.11900       -0.50800
C          4.97500        2.87400       -0.31800
H          0.47900       -0.99200       -0.67000
H          0.32800        0.73500       -1.04600
H          0.68400        0.21900        0.61000
H          2.51800       -0.13300       -1.81800
H          2.87200       -0.71800       -0.16500
H          4.89300       -0.38500       -1.33900
H          7.28200        0.06800       -1.66600
H          8.22200        2.30100       -1.14400
H          6.74600        4.09900       -0.27600
H          4.33800        3.67100        0.06200
