20
93-53-8.pdb
C          0.98900       -0.43200        0.04300
C          2.44200        0.02900       -0.04300
C          3.30100       -0.66200        1.00500
O          2.88600       -1.47100        1.82800
C          3.01200       -0.14500       -1.44000
C          3.47600        0.97300       -2.15100
C          4.01500        0.83200       -3.43200
C          4.10000       -0.42800       -4.01900
C          3.63000       -1.54600       -3.33200
C          3.08600       -1.40600       -2.05300
H          0.58700       -0.25900        1.04700
H          0.88900       -1.50400       -0.16500
H          0.36200        0.11000       -0.67300
H          2.46800        1.09400        0.22100
H          4.35900       -0.34100        1.03100
H          3.41600        1.96900       -1.71800
H          4.36800        1.70600       -3.97200
H          4.52800       -0.53900       -5.01200
H          3.68500       -2.52800       -3.79500
H          2.71700       -2.29400       -1.54300
