20
93-56-1.pdb
O          2.49200        0.26200       -1.12500
C          2.33600        0.75700        0.20900
C          2.99000       -0.18000        1.24400
O          2.51500       -1.51300        1.04500
C          4.50500       -0.22500        1.26900
C          5.15500       -0.47500        2.49100
C          6.54700       -0.56900        2.55800
C          7.31200       -0.42500        1.40400
C          6.68700       -0.18900        0.18400
C          5.29400       -0.09500        0.11700
H          2.14300        0.95000       -1.71900
H          1.25800        0.80300        0.39400
H          2.75300        1.76800        0.26900
H          2.64100        0.14600        2.23200
H          2.73000       -1.71200        0.11400
H          4.57300       -0.61700        3.40000
H          7.03100       -0.76800        3.51000
H          8.39500       -0.50800        1.45500
H          7.27900       -0.09100       -0.72200
H          4.84200        0.06400       -0.85800
