19
93-61-8.pdb
C          3.09700       -0.21800       -1.38000
N          2.41900        0.06000       -0.12100
C          1.06400       -0.23300       -0.04600
O          0.38100       -0.73600       -0.93400
C          3.17500        0.56900        0.98700
C          2.71700        0.45100        2.30800
C          3.47800        0.92400        3.38400
C          4.70600        1.53300        3.16000
C          5.17700        1.66800        1.85800
C          4.42100        1.18400        0.78500
H          2.42800       -0.68500       -2.10900
H          3.92700       -0.90900       -1.19600
H          3.46500        0.71300       -1.82000
H          0.59200        0.05700        0.90200
H          1.78700       -0.05000        2.55300
H          3.11000        0.80200        4.40000
H          5.29900        1.89600        3.99600
H          6.13200        2.15300        1.67500
H          4.82900        1.33000       -0.21200
