18
93-84-5.pdb
O          2.68000       -1.12000       -0.07900
N          2.27600        0.05000       -0.02100
O          1.35000        0.44000        0.70400
C          2.93900        1.04500       -0.87400
C          4.00500        0.63300       -1.72000
C          4.64200        1.55300       -2.56200
C          4.18500        2.84900       -2.51800
N          4.60800        3.96200       -3.23300
C          3.83600        5.06800       -2.84800
O          3.93000        6.20500       -3.27400
N          2.93200        4.60800       -1.87900
C          3.14300        3.24900       -1.67900
C          2.49400        2.37600       -0.84100
H          4.33900       -0.40400       -1.72800
H          5.45300        1.25000       -3.21500
H          5.33600        4.00700       -3.92800
H          2.25100        5.19900       -1.42900
H          1.68300        2.70700       -0.20100
