19
93-85-6.pdb
N         -3.08900        0.64900        0.02500
C         -1.77700        0.39900        0.00900
S         -1.18500       -1.21100        0.00000
C          0.43000       -0.62000        0.00600
C          1.63700       -1.33900        0.00700
C          2.84800       -0.62700        0.01700
C          2.84300        0.77000        0.00900
C          1.62700        1.47400        0.00800
C          0.40100        0.77300        0.00800
N         -0.86300        1.33800        0.00600
C          4.09600       -1.43700       -0.02600
O          5.17500       -0.86500        0.55400
O          4.13000       -2.55300       -0.51500
H         -3.77800       -0.08800       -0.02000
H         -3.41900        1.60400       -0.02500
H          1.63000       -2.42700       -0.00800
H          3.76500        1.34400       -0.03300
H          1.61200        2.55900       -0.00600
H          5.02300       -0.02700        1.02600
