21
93-89-0.pdb
C          1.45700        0.81300       -0.02400
C          2.82500        0.56200        0.58600
O          3.73500        1.49600       -0.00900
C          4.33600        1.08500       -1.15300
O          4.43700       -0.06300       -1.55800
C          4.80700        2.27700       -1.90000
C          4.18000        3.52100       -1.74200
C          4.58600        4.61000       -2.51000
C          5.61600        4.46100       -3.43600
C          6.24000        3.22200       -3.60100
C          5.82900        2.12500       -2.84000
H          0.69500        0.17700        0.43100
H          1.47600        0.62900       -1.10400
H          1.17100        1.86300        0.10700
H          3.14600       -0.47600        0.45000
H          2.80000        0.76500        1.66100
H          3.36100        3.64600       -1.03700
H          4.08900        5.57000       -2.39300
H          5.92800        5.31000       -4.03900
H          7.03700        3.11000       -4.33100
H          6.30500        1.15700       -2.98600
