22
93-91-4.pdb
C          2.75300        1.10200       -2.24500
C          2.69000        1.85300       -0.94000
O          2.11700        2.93900       -0.84800
C          3.35300        1.22700        0.25600
C          4.84100        1.08600        0.08200
O          5.30900        0.06800       -0.42800
C          5.75400        2.19600        0.49300
C          5.28900        3.43800        0.94100
C          6.19700        4.42700        1.33200
C          7.56900        4.19000        1.26500
C          8.04100        2.96400        0.80200
C          7.13700        1.97100        0.41800
H          2.15100        1.62100       -2.99700
H          2.35100        0.09500       -2.11000
H          3.78600        1.05200       -2.59800
H          2.92100        0.23200        0.41500
H          3.11200        1.79200        1.16100
H          4.23000        3.67400        0.99200
H          5.83200        5.38800        1.68700
H          8.27200        4.96200        1.57000
H          9.10900        2.77700        0.74300
H          7.52100        1.01700        0.05900
