26
93-98-1.pdb
O          0.97700        0.04100        0.52800
C          2.15600        0.07600        0.19800
N          2.76400        1.01400       -0.61800
C          2.15200        2.14600       -1.19700
C          0.89800        2.62700       -0.81600
C          0.33700        3.73500       -1.45800
C          1.02700        4.37200       -2.48600
C          2.28800        3.91400       -2.86000
C          2.85300        2.81300       -2.21000
C          3.04400       -1.02900        0.64900
C          2.51100       -2.32100        0.72800
C          3.31100       -3.38500        1.14600
C          4.64100       -3.15700        1.49700
C          5.17300       -1.86700        1.43600
C          4.37600       -0.80100        1.01400
H          3.69800        0.80300       -0.94300
H          0.33200        2.16400       -0.01300
H         -0.64300        4.09200       -1.15400
H          0.58100        5.22300       -2.99400
H          2.82800        4.40900       -3.66200
H          3.83400        2.47100       -2.52700
H          1.47000       -2.50000        0.46100
H          2.89500       -4.38700        1.20400
H          5.26200       -3.98500        1.83100
H          6.20500       -1.69400        1.73000
H          4.79500        0.20200        1.00700
