14
931-40-8.pdb
O          2.39600       -0.68000        1.28200
C          2.41600        0.00200        0.03700
C          3.24900        1.27600        0.13300
C          2.73400        2.24400        1.16100
O          2.67200        3.49000        0.48900
C          2.88700        3.28100       -0.83600
O          2.81500        4.14700       -1.69200
O          3.19000        1.98000       -1.09700
H          1.83800       -1.47000        1.16300
H          1.38700        0.23200       -0.26200
H          2.83500       -0.66200       -0.72800
H          4.29300        1.01800        0.34800
H          3.41800        2.33100        2.01100
H          1.74100        1.99600        1.54900
