12
931-86-2.pdb
N          1.19700       -0.04400        0.31200
C          2.54400       -0.01300        0.18200
N          3.18300        1.09900        0.10500
C          4.54000        1.02100       -0.01200
N          5.21600       -0.07000       -0.09500
C          4.53500       -1.24600       -0.05200
O          5.07800       -2.34000       -0.17400
N          3.18800       -1.19300        0.12600
H          0.74900        0.83800        0.08500
H          0.69900       -0.85400       -0.03300
H          5.08300        1.98200       -0.03700
H          2.71200       -2.07600        0.18600
