18
932-30-9.pdb
N          0.93100        0.05500       -0.00000
C          2.39000       -0.06000        0.04600
C          2.82200       -1.32300        0.74600
C          2.42400       -2.57100        0.23500
C          2.79600       -3.75800        0.86700
C          3.57800       -3.71600        2.01900
C          3.99500       -2.48800        2.53300
C          3.62200       -1.30400        1.89400
O          4.03900       -0.10300        2.39700
H          0.69000        0.97600       -0.36100
H          0.58800        0.03000        0.96000
H          2.79500        0.83100        0.53600
H          2.78700       -0.06600       -0.97600
H          1.80400       -2.61200       -0.66000
H          2.47000       -4.71200        0.46200
H          3.86100       -4.64000        2.51700
H          4.60500       -2.47500        3.43100
H          4.61400       -0.27000        3.16200
