21
932-66-1.pdb
C          3.13500        0.41500       -1.34400
C          2.57500        0.06800        0.01600
O          1.57900       -0.62800        0.14000
C          3.30700        0.57800        1.22400
C          4.39300        1.34700        1.04500
C          5.24900        1.84000        2.17000
C          4.98800        1.09100        3.47500
C          3.49200        0.93200        3.72600
C          2.81000        0.16800        2.58400
H          2.50200       -0.02100       -2.12100
H          4.14200       -0.00100       -1.44400
H          3.15000        1.49800       -1.48700
H          4.72400        1.62800        0.05000
H          5.06000        2.91100        2.30300
H          6.30300        1.72800        1.89500
H          5.45800        1.62700        4.30700
H          5.45500        0.09900        3.42900
H          3.03400        1.92500        3.82700
H          3.32300        0.40700        4.67300
H          1.72800        0.32100        2.67200
H          2.99800       -0.90600        2.71000
