14
932-53-6.pdb
C          1.03500        0.01400        0.07900
C          2.53500        0.00100        0.08000
N          3.19300       -1.12000        0.08300
N          4.55700       -1.03400        0.08400
C          5.29600        0.12000        0.08300
O          6.52300        0.11200        0.08500
N          4.59400        1.28400        0.08000
C          3.23300        1.34400        0.08000
O          2.59000        2.38300        0.07900
H          0.64300       -1.00600        0.07700
H          0.67600        0.53400       -0.81400
H          0.67400        0.53200        0.97100
H          5.06800       -1.91200        0.08600
H          5.11400        2.14600        0.08000
