22
93247-78-0.pdb
C          1.22200        0.77900        0.35500
O          2.64800        0.81300        0.38700
C          3.19800        0.01900        1.33800
O          2.58900       -0.66000        2.14900
C          4.67800        0.06800        1.27000
C          5.36900        0.87300        0.35200
C          6.76100        0.91200        0.33700
C          7.50700        0.13500        1.23100
C          6.84000       -0.70000        2.14800
C          7.27300       -1.61200        3.15000
C          6.15300       -2.15400        3.73800
N          5.05600       -1.58100        3.15400
C          5.44500       -0.71000        2.15500
H          0.89100        1.28700       -0.55500
H          0.81900        1.31000        1.22200
H          0.85400       -0.25100        0.32400
H          4.81900        1.49100       -0.35700
H          7.27700        1.55600       -0.37100
H          8.59200        0.17500        1.21600
H          8.29700       -1.85100        3.40600
H          6.04200       -2.89000        4.52300
H          4.08700       -1.76200        3.39500
