19
933-67-5.pdb
C          1.63600        2.22800        0.02700
C          1.16200        0.80500        0.00900
C          2.08200       -0.25900        0.00400
C          1.66500       -1.58900        0.00300
C          0.30400       -1.91000        0.00900
C         -0.64600       -0.87200        0.01000
C         -2.06800       -0.84000        0.02000
C         -2.45800        0.47900        0.01100
N         -1.32500        1.24700       -0.00400
C         -0.20000        0.45100        0.00400
H          2.72800        2.29200        0.03300
H          1.26400        2.73200        0.92500
H          1.26900        2.75900       -0.85700
H          3.15000       -0.04900        0.00400
H          2.40300       -2.38700       -0.00000
H         -0.01400       -2.94800        0.01300
H         -2.73200       -1.69400        0.03500
H         -3.43800        0.93500        0.01300
H         -1.30700        2.25700       -0.02000
