17
934-60-1.pdb
C          2.42200       -0.02600        0.00100
C          0.92100        0.00900        0.00600
C          0.19300       -1.18200        0.00100
C         -1.19900       -1.13100        0.00000
C         -1.83700        0.10100        0.00300
C         -1.04200        1.23700        0.00900
N          0.32600        1.22800        0.01100
C         -1.68200        2.58500        0.01500
O         -0.73700        3.55700        0.02100
O         -2.88100        2.79100        0.01400
H          2.80200       -1.05400        0.00100
H          2.81100        0.47900        0.89000
H          2.80400        0.47500       -0.89400
H          0.69800       -2.14300       -0.00200
H         -1.78100       -2.04900       -0.00400
H         -2.91900        0.17700        0.00100
H          0.15100        3.12700        0.02000
