18
934-37-2.pdb
C          1.14700       -0.07600       -0.05800
C          2.62300        0.01800       -0.05800
C          3.41200        1.14900       -0.05800
N          4.70600        0.70200       -0.05700
C          5.89400        1.43000       -0.05700
C          7.06500        0.77100       -0.05500
C          7.05200       -0.68600       -0.05600
C          5.89700       -1.38200       -0.05600
C          4.65300       -0.68800       -0.05700
N          3.40600       -1.11700       -0.05600
H          0.69100        0.91900       -0.05800
H          0.79600       -0.61000        0.83100
H          0.79700       -0.61000       -0.94600
H          3.16700        2.20100       -0.06000
H          5.81700        2.50900       -0.05800
H          8.01700        1.29100       -0.05400
H          8.00900       -1.19900       -0.05500
H          5.88600       -2.46600       -0.05700
