17
934-32-7.pdb
N         -3.21800       -0.05800        0.09100
C         -1.88600        0.02800        0.04500
N         -1.10500       -1.09500        0.02900
C          0.21000       -0.70300        0.00900
C          1.40900       -1.41400       -0.00200
C          2.58700       -0.65700       -0.01100
C          2.55300        0.74000       -0.01200
C          1.33300        1.42800       -0.00500
C          0.14300        0.68800        0.00600
N         -1.16200        1.11800        0.02000
H         -3.73300       -0.90000       -0.12900
H         -3.73400        0.80500       -0.06100
H         -1.44400       -2.04300        0.05500
H          1.43700       -2.49900        0.00200
H          3.54900       -1.16700       -0.01600
H          3.48400        1.30300       -0.01600
H          1.29800        2.51200       -0.00400
