16
935-14-8.pdb
C         -4.02500       -0.00000        0.00600
C         -2.82400        0.00200        0.00000
C         -1.39600        0.00100       -0.00100
C         -0.69700        1.21100       -0.00100
C          0.69900        1.20900        0.00100
C          1.39600       -0.00100        0.00100
C          0.69700       -1.21100        0.00100
C         -0.69900       -1.20900       -0.00100
C          2.82400       -0.00200       -0.00000
C          4.02500        0.00000       -0.00600
H         -5.09000       -0.00300        0.01400
H         -1.23300        2.15700       -0.00100
H          1.23700        2.15400        0.00100
H          1.23300       -2.15700        0.00100
H         -1.23700       -2.15400       -0.00100
H          5.09000        0.00300       -0.01400
