23
936-58-3.pdb
O          1.02600        0.05000       -0.04100
C          2.45500        0.08200        0.07400
C          2.90300        1.48100        0.57000
C          2.41700        1.83900        1.95300
C          1.67900        2.92000        2.23600
C          2.94300       -1.11500        0.87700
C          2.18900       -2.30300        0.90900
C          2.64100       -3.42800        1.60300
C          3.86000       -3.39300        2.27100
C          4.63100       -2.23400        2.24000
C          4.18200       -1.11200        1.53900
H          0.73800        0.91600       -0.37300
H          2.84400       -0.04700       -0.94300
H          2.53600        2.23100       -0.14200
H          3.99600        1.55800        0.55500
H          2.69200        1.16900        2.76500
H          1.37300        3.62500        1.47100
H          1.36200        3.11900        3.25600
H          1.23300       -2.35400        0.39100
H          2.03700       -4.33200        1.61700
H          4.21200       -4.26700        2.81200
H          5.58600       -2.20300        2.75800
H          4.82200       -0.23400        1.52900
