26
936-52-7.pdb
C          1.14200       -0.33300       -0.49900
C          0.48800       -0.87600        0.76300
C         -0.74800       -0.05600        0.89700
C         -0.79000        0.98300        0.05200
C          0.44000        0.98400       -0.82100
N         -1.75400        1.97000       -0.05000
C         -1.72700        3.05600       -1.05500
C         -1.66200        4.41800       -0.35100
O         -2.77000        4.59600        0.54700
C         -2.76300        3.56300        1.54700
C         -2.85100        2.16100        0.92200
H          1.01100       -1.04000       -1.32700
H          2.22100       -0.19200       -0.36700
H          1.12800       -0.73800        1.63900
H          0.25700       -1.94100        0.66100
H         -1.50100       -0.29200        1.63300
H          1.07900        1.83900       -0.57700
H          0.19100        1.01900       -1.88600
H         -2.64500        2.99200       -1.65100
H         -0.88500        2.97000       -1.74700
H         -1.70400        5.22200       -1.09200
H         -0.72600        4.52700        0.21100
H         -3.62400        3.73300        2.20100
H         -1.85600        3.66600        2.15500
H         -3.80500        2.05000        0.39300
H         -2.83600        1.41900        1.72600
