29
93621-94-4.pdb
C          1.01000       -1.96300       -0.87600
O          2.42600       -1.84000       -1.00400
C          2.81100       -0.47900       -1.22100
C          4.34800       -0.42100       -1.21800
C          4.91400        0.93700       -1.58800
C          4.84000        0.96400       -3.10700
C          5.14300       -0.46800       -3.54200
C          6.59500       -0.66800       -3.99600
O          6.78500       -2.06000       -4.25400
C          8.06500       -2.31600       -4.83100
N          4.87000       -1.31100       -2.31600
H          0.77300       -3.00200       -0.63300
H          0.52400       -1.70300       -1.82100
H          0.63400       -1.32200       -0.07000
H          2.41100        0.16100       -0.42700
H          2.39700       -0.15300       -2.18200
H          4.75000       -0.81100       -0.27700
H          5.96000        1.00700       -1.26800
H          4.36500        1.76700       -1.13100
H          5.52600        1.69800       -3.53800
H          3.82800        1.24000       -3.42900
H          4.44700       -0.81800       -4.31300
H          7.30100       -0.35000       -3.22100
H          6.77800       -0.08700       -4.90700
H          8.11800       -3.37300       -5.10300
H          8.85200       -2.09700       -4.10300
H          8.21100       -1.71600       -5.73700
H          5.72500       -1.81300       -2.03900
H          4.18500       -2.06200       -2.50600
