21
93680-80-9.pdb
C          1.08000        1.70200        0.35500
C          2.56400        1.81700        0.53200
O          3.07700        2.57000        1.35100
O          3.20200        0.97100       -0.33600
C          4.55500        1.00200       -0.41100
C          5.38500        2.06800       -0.14500
O          6.68500        1.71900       -0.32200
C          6.69300        0.42100       -0.72900
C          7.83800       -0.32300       -1.00300
C          7.64200       -1.63900       -1.42900
C          6.35600       -2.16400       -1.57500
C          5.21700       -1.39300       -1.28200
C          5.39400       -0.06700       -0.83600
H          0.58200        2.34600        1.08800
H          0.75900        0.67300        0.52900
H          0.79700        2.03600       -0.64600
H          5.22200        3.08900        0.17400
H          8.82600        0.10600       -0.88500
H          8.50800       -2.26000       -1.65000
H          6.23400       -3.19000       -1.91800
H          4.22600       -1.81700       -1.39500
