19
937-41-7.pdb
C          1.45300        0.59000        1.06300
C          2.69000        0.42700        0.57900
C          3.09000        1.08500       -0.68900
O          2.32100        1.64800       -1.45200
O          4.46800        0.99300       -0.77900
C          5.11100        1.92200       -1.61300
C          4.78700        3.28000       -1.57100
C          5.51700        4.18800       -2.33600
C          6.57800        3.74100       -3.12000
C          6.91100        2.38500       -3.14300
C          6.18000        1.46900       -2.38300
H          1.16100        0.14700        2.00900
H          0.70800        1.18000        0.53300
H          3.44200       -0.13800        1.11400
H          3.97300        3.64100       -0.94700
H          5.25600        5.24300       -2.31100
H          7.14900        4.45300       -3.70900
H          7.74900        2.04600       -3.74800
H          6.45100        0.41800       -2.39100
