30
93762-35-7.pdb
C          0.98900        0.07200       -0.06100
C          2.50900        0.05900       -0.04300
C          3.05000       -0.65700        1.18800
C          4.57400       -0.68100        1.21700
C          5.10000       -1.37700        2.45600
O          6.52700       -1.40600        2.51700
C          7.10300       -0.23700        2.90600
O          6.58900        0.87400        2.82200
C          8.42600       -0.48500        3.56300
C          8.40100       -0.01400        5.01300
S         10.01900       -0.33900        5.79700
C          9.68000        0.31700        7.45100
H          0.62200        0.59100       -0.95100
H          0.59000        0.58600        0.82000
H          0.58900       -0.94700       -0.07300
H          2.87700        1.09500       -0.06500
H          2.87600       -0.43100       -0.95300
H          2.67100       -1.68800        1.20900
H          2.67500       -0.16400        2.09500
H          4.95600        0.35100        1.18200
H          4.97700       -1.17300        0.31700
H          4.75000       -2.42600        2.47800
H          4.72600       -0.90200        3.37000
H          9.19400        0.03600        2.98400
H          8.63900       -1.56200        3.51700
H          7.62200       -0.54100        5.57800
H          8.19200        1.06100        5.06500
H         10.57200        0.20000        8.07200
H          8.86000       -0.23200        7.92100
H          9.43300        1.38000        7.40100
