50
93892-40-1.pdb
C          3.59100       -0.09800        0.88100
C          2.41700       -0.04700       -0.10200
C          1.33100        0.89500        0.44100
C          2.90900        0.31600       -1.49800
C          3.05100        1.65200       -1.87100
C          3.44500        1.97200       -3.16700
C          3.81200        0.97800       -4.10900
C          3.77400       -0.38300       -3.74500
C          4.23300       -1.51400       -4.66400
C          5.41800       -2.32300       -4.11400
C          3.10000       -2.44800       -5.10600
C          3.26100       -0.67200       -2.44700
O          3.05500       -1.98000       -2.10100
C          4.18200        1.65700       -5.42700
C          5.69900        1.79400       -5.63100
C          3.54900        1.04200       -6.68800
C          3.53800        3.06600       -5.23300
C          3.48000        3.37700       -3.72600
C          4.69000        4.17400       -3.21800
C          2.20400        4.17600       -3.41500
H          3.24200       -0.34700        1.89000
H          4.11200        0.86400        0.93700
H          4.32400       -0.85600        0.58400
H          1.95800       -1.04200       -0.14100
H          1.73600        1.87300        0.72300
H          0.87500        0.46700        1.34100
H          0.53600        1.05400       -0.29400
H          2.81700        2.45200       -1.17400
H          4.62700       -1.07300       -5.57900
H          5.31600       -2.59200       -3.06000
H          6.34700       -1.74900       -4.21100
H          5.55200       -3.25300       -4.67700
H          2.71500       -3.05800       -4.28500
H          3.45900       -3.14300       -5.87700
H          2.26300       -1.88700       -5.53200
H          3.84900       -2.25100       -1.61000
H          6.18000        0.81900       -5.73600
H          6.19300        2.30200       -4.80000
H          5.91500        2.37400       -6.53700
H          4.06400        0.14100       -7.02800
H          3.59800        1.74600       -7.52500
H          2.49600        0.78400       -6.52600
H          2.51300        3.04000       -5.62800
H          4.05900        3.84800       -5.80300
H          5.62600        3.61600       -3.28800
H          4.57000        4.42800       -2.15200
H          4.80700        5.10600       -3.77200
H          1.30100        3.62100       -3.69300
H          2.19700        5.12600       -3.96100
H          2.12100        4.41000       -2.34800
