21
939-23-1.pdb
C          1.39800       -0.23800        0.06500
C          0.51200       -1.30700       -0.00700
C         -0.86500       -1.07400       -0.09100
C         -1.39400        0.23100       -0.09600
C         -0.47200        1.29100       -0.00200
C          0.90700        1.06200        0.06800
C         -2.85200        0.48000       -0.21400
C         -3.80000       -0.40000        0.32700
C         -5.15400       -0.13300        0.16900
N         -5.63700        0.94800       -0.47400
C         -4.72300        1.79400       -0.98600
C         -3.35100        1.60400       -0.88700
H          2.46900       -0.41700        0.11800
H          0.89000       -2.32700       -0.00700
H         -1.52100       -1.93800       -0.17300
H         -0.81700        2.32200        0.02400
H          1.59300        1.90300        0.12600
H         -3.50600       -1.28800        0.87700
H         -5.90700       -0.80500        0.57100
H         -5.12900        2.66000       -1.50100
H         -2.69100        2.32900       -1.35300
