18
939-83-3.pdb
C          0.78600       -2.13300        0.01000
C         -0.13400       -0.93900        0.00400
C         -1.52400       -1.14100        0.00200
C         -2.40200       -0.05600        0.00500
C         -1.89100        1.24600        0.01000
C         -0.50700        1.46900        0.00800
C          0.37200        0.37700        0.00500
C          1.78800        0.62800        0.00300
N          2.93100        0.82200        0.00100
N         -2.81400        2.38900        0.02000
O         -4.02900        2.14800        0.02400
O         -2.32000        3.52500        0.02600
H          0.22300       -3.07200        0.00000
H          1.40600       -2.12900        0.91200
H          1.42800       -2.12400       -0.87700
H         -1.93400       -2.15100       -0.00000
H         -3.47500       -0.24300        0.00500
H         -0.10700        2.48300        0.01100
