38
94-01-9.pdb
O          2.28700       -1.92500        0.76600
C          2.11200       -1.18200       -0.19000
O          3.06900       -0.80100       -1.12900
C          4.45200       -1.05100       -0.92500
C          5.02900       -1.03300        0.34700
C          6.41200       -1.13700        0.48000
C          7.21800       -1.26400       -0.65100
C          6.63600       -1.35100       -1.91800
O          7.40500       -1.54100       -3.09500
C          8.55300       -2.32500       -3.03300
O          9.00000       -2.92100       -2.06300
C          9.27000       -2.34000       -4.33000
C          8.59900       -2.37100       -5.55500
C          9.33100       -2.47900       -6.74200
C         10.72600       -2.54700       -6.70800
C         11.39700       -2.51400       -5.48900
C         10.67200       -2.41700       -4.30100
C          5.25100       -1.20200       -2.06700
C          0.80000       -0.52800       -0.46700
C         -0.25800       -0.77700        0.42500
C         -1.50100       -0.16600        0.24400
C         -1.70100        0.69900       -0.83200
C         -0.66100        0.94900       -1.72900
C          0.58700        0.33800       -1.54900
H          4.42800       -0.92400        1.24500
H          6.86800       -1.11700        1.46700
H          8.29500       -1.30900       -0.51600
H          7.51300       -2.34900       -5.59700
H          8.81500       -2.52700       -7.69800
H         11.29000       -2.63800       -7.63400
H         12.48400       -2.57700       -5.46000
H         11.20100       -2.41800       -3.34800
H          4.80100       -1.20300       -3.05400
H         -0.11600       -1.44400        1.27400
H         -2.30900       -0.36000        0.94600
H         -2.66700        1.18000       -0.96600
H         -0.82200        1.62400       -2.56400
H          1.38200        0.55800       -2.25700
