23
94-09-7.pdb
C          1.44600       -0.04000        0.92700
C          2.75600       -0.66800        0.48900
O          3.70200       -0.46000        1.54300
C          4.42000        0.68600        1.47000
O          4.56600        1.39500        0.48700
C          4.95400        1.01300        2.81200
C          4.32600        0.55400        3.97700
C          4.79900        0.94900        5.22900
C          5.92700        1.76600        5.34000
N          6.31000        2.26400        6.59000
C          6.51100        2.26900        4.17300
C          6.04000        1.88600        2.91300
H          0.65800       -0.20500        0.18900
H          1.56700        1.03800        1.08200
H          1.12900       -0.45800        1.88900
H          3.10100       -0.25900       -0.46800
H          2.63200       -1.74800        0.36100
H          3.44300       -0.07800        3.92200
H          4.26900        0.62200        6.12000
H          6.07300        1.65300        7.36600
H          7.27500        2.57900        6.62900
H          7.33400        2.97600        4.23400
H          6.50500        2.29000        2.01700
