24
94-08-6.pdb
C          4.13700        3.30800       -2.61900
C          4.25200        1.90500       -3.18300
O          4.99500        1.06400       -2.28900
C          4.30100        0.11200       -1.61600
O          3.08700       -0.00200       -1.57700
C          5.24700       -0.83500       -0.95500
C          4.71900       -1.89100       -0.19800
C          5.57200       -2.81800        0.41200
C          6.96000       -2.70200        0.27600
C          7.88900       -3.69000        0.91900
C          7.48400       -1.65400       -0.49000
C          6.63600       -0.72500       -1.09800
H          3.77100        3.99800       -3.38600
H          5.10300        3.66800       -2.25300
H          3.44100        3.33000       -1.77500
H          4.82200        1.93700       -4.11600
H          3.26400        1.49700       -3.42100
H          3.64200       -2.00000       -0.08400
H          5.14100       -3.63100        0.99200
H          7.35200       -4.36700        1.59200
H          8.64700       -3.16600        1.51100
H          8.38700       -4.29300        0.15300
H          8.56000       -1.55700       -0.62300
H          7.07600        0.07400       -1.69100
