25
94-13-3.pdb
C          0.81200       -0.10600       -0.82100
C          2.19000       -0.72900       -0.64900
C          3.21400        0.02600       -1.48600
O          4.54300       -0.47200       -1.28400
C          5.05600       -1.23100       -2.28500
O          4.43100       -1.75000       -3.19400
C          6.53800       -1.29000       -2.16100
C          7.25000       -0.34400       -1.40500
C          8.64600       -0.38000       -1.35700
C          9.32600       -1.36400       -2.06600
O         10.68800       -1.43600       -2.04500
C          8.63700       -2.30300       -2.82800
C          7.24000       -2.26400       -2.88200
H          0.06600       -0.63600       -0.22000
H          0.49500       -0.14400       -1.86800
H          0.81600        0.94300       -0.50700
H          2.16500       -1.78500       -0.93900
H          2.47900       -0.70800        0.40900
H          3.24000        1.07500       -1.17100
H          2.93700        0.02100       -2.54600
H          6.72700        0.44100       -0.86400
H          9.17700        0.36600       -0.77500
H         11.03200       -0.73200       -1.47200
H          9.18500       -3.05800       -3.38300
H          6.70600       -2.98900       -3.49300
