40
94-62-2.pdb
O          1.37000        0.88800        0.06800
C          2.27000        0.05200        0.09300
C          3.04600       -0.15400        1.33800
C          2.41500       -0.21500        2.52000
C          3.13100       -0.37900        3.76700
C          2.53000       -0.46400        4.96500
C          3.26300       -0.61500        6.23500
C          2.65700       -1.32700        7.29600
C          3.31200       -1.49700        8.52300
C          4.56500       -0.94500        8.66400
O          5.35400       -1.02100        9.76900
C          6.52800       -0.31600        9.31200
O          6.38600        0.23600        7.98800
C          5.15400       -0.23100        7.64900
C          4.52800       -0.03700        6.43500
N          2.64500       -0.71000       -1.00000
C          3.56200       -1.85200       -0.98000
C          4.65900       -1.66600       -2.02500
C          4.06700       -1.40100       -3.41000
C          3.04900       -0.26000       -3.37700
C          1.99900       -0.47400       -2.28700
H          4.12300       -0.20600        1.24800
H          1.33000       -0.13500        2.55700
H          4.21500       -0.43400        3.69600
H          1.44500       -0.44000        5.04200
H          1.66900       -1.76500        7.16700
H          2.85200       -2.04900        9.33500
H          7.37500       -1.01300        9.31000
H          6.74600        0.49800       10.01200
H          5.01800        0.55300        5.66900
H          2.97000       -2.74800       -1.20800
H          4.00500       -2.01300        0.00400
H          5.29900       -2.55400       -2.05700
H          5.29300       -0.81800       -1.73700
H          3.58000       -2.31300       -3.77800
H          4.87100       -1.16000       -4.11500
H          2.56200       -0.16700       -4.35400
H          3.57700        0.68300       -3.18700
H          1.38400       -1.35400       -2.51700
H          1.33000        0.39000       -2.24800
