28
94-85-9.pdb
C          0.88900       -0.97600        0.19400
C          2.39900       -1.08800        0.23300
O          2.91600       -0.94100       -1.09200
C          4.27700       -1.05200       -1.21100
C          5.15200       -1.21900       -0.14400
C          6.51700       -1.35000       -0.37000
C          7.04800       -1.30800       -1.66500
O          8.39800       -1.45500       -1.93300
C          9.20600       -1.71000       -0.78000
C         10.66800       -1.88900       -1.14100
C          6.17600       -1.08300       -2.75200
N          6.62900       -1.16300       -4.08500
C          4.79200       -0.99900       -2.51100
H          0.47300       -1.08800        1.20000
H          0.46100       -1.74600       -0.45500
H          0.58500       -0.00500       -0.20900
H          2.66800       -2.07200        0.63600
H          2.78900       -0.29400        0.88200
H          4.81200       -1.26700        0.88300
H          7.13400       -1.49800        0.50700
H          8.87000       -2.63100       -0.28400
H          9.13800       -0.86200       -0.08700
H         10.80700       -2.74300       -1.80800
H         11.25200       -2.06500       -0.22400
H         11.06200       -1.00100       -1.63700
H          7.61900       -0.93900       -4.15700
H          6.05200       -0.65000       -4.74300
H          4.10100       -0.89700       -3.34400
