36
94-93-9.pdb
O         -1.31900       -0.68200       -1.28500
C         -0.59200       -0.58700       -0.30200
C          0.64400       -1.40800       -0.21800
C          1.44600       -1.33700        0.85300
C          1.16000       -0.47100        1.97100
C          0.07300        0.31700        1.98300
C         -0.85900        0.33000        0.87000
C         -1.93800        1.13300        0.86000
N         -2.88800        1.25700       -0.12000
C         -4.06300        2.10700       -0.12400
C         -5.33400        1.26100       -0.29000
N         -6.51600        2.10200       -0.38200
C         -7.45400        2.07300       -1.38200
C         -8.58500        2.78600       -1.51900
C         -9.47700        2.55300       -2.64400
C        -10.66700        3.16400       -2.72500
C        -11.11100        4.07500       -1.69700
C        -10.33400        4.41100       -0.65900
C         -8.97000        3.83200       -0.50600
O         -8.24300        4.21200        0.40700
H          0.84900       -2.05600       -1.06000
H          2.34700       -1.94200        0.90200
H          1.85300       -0.47200        2.80600
H         -0.12100        0.96300        2.83500
H         -2.12900        1.79300        1.70700
H         -2.73700        0.66000       -0.94400
H         -3.97900        2.81800       -0.95400
H         -4.12600        2.69900        0.79700
H         -5.44100        0.57400        0.55700
H         -5.23600        0.63800       -1.18800
H         -6.72800        2.72400        0.40500
H         -7.20300        1.33500       -2.14200
H         -9.16700        1.86000       -3.42000
H        -11.32900        2.97800       -3.56600
H        -12.11000        4.49000       -1.79300
H        -10.65500        5.10200        0.11000
