29
942-92-7.pdb
C          0.93000       -0.04000       -0.20100
C          2.44700       -0.02300       -0.13800
C          2.99200       -1.23700        0.61400
C          4.51800       -1.20000        0.68300
C          5.07400       -2.43000        1.40200
C          6.59200       -2.38400        1.47300
O          7.20000       -1.31700        1.54200
C          7.36800       -3.66300        1.48500
C          6.76000       -4.92200        1.54400
C          7.54100       -6.08300        1.50600
C          8.92900       -5.99300        1.42600
C          9.54400       -4.74300        1.39400
C          8.76800       -3.58400        1.42300
H          0.56400        0.83800       -0.74400
H          0.49500       -0.02500        0.80300
H          0.56800       -0.93500       -0.71900
H          2.77700        0.89900        0.35400
H          2.85000       -0.00700       -1.15800
H          2.66500       -2.15600        0.11200
H          2.57900       -1.25800        1.63000
H          4.84100       -0.28500        1.19400
H          4.93300       -1.15800       -0.33200
H          4.73900       -3.31400        0.85500
H          4.69100       -2.48200        2.42800
H          5.68500       -5.03900        1.62200
H          7.06300       -7.05900        1.53700
H          9.53300       -6.89600        1.39200
H         10.62700       -4.66900        1.34000
H          9.26100       -2.61400        1.39200
