28
94278-27-0.pdb
C          2.49400       -1.41700       -1.59900
C          2.54100       -0.36600       -0.50800
O          3.07200        0.83000       -1.08600
C          4.43400        0.91700       -1.10900
O          5.20200        0.23600       -0.44600
C          4.83400        1.91400       -2.15800
C          6.34600        1.98600       -2.30200
S          6.73100        3.12000       -3.67100
C          8.54900        3.02600       -3.62300
C          9.13000        3.85800       -4.70700
O          9.93300        4.89200       -4.32200
C         10.34500        5.51800       -5.45400
C          9.82500        4.89600       -6.56600
C          9.04200        3.82200       -6.08500
H          2.07100       -2.35800       -1.22900
H          3.48800       -1.61400       -2.00800
H          1.87400       -1.06800       -2.43500
H          3.13100       -0.70400        0.35300
H          1.53300       -0.14500       -0.15000
H          4.41800        2.89300       -1.88800
H          4.38600        1.57700       -3.10200
H          6.76100        0.99500       -2.52500
H          6.80500        2.35100       -1.37800
H          8.86200        1.98500       -3.75600
H          8.89700        3.36900       -2.64400
H         10.98800        6.37400       -5.30800
H          9.98700        5.18600       -7.59400
H          8.46500        3.11400       -6.66400
