20
943-37-3.pdb
C          6.73100        0.42100        0.43200
C          5.56500       -0.47900        0.80400
O          5.34300       -1.38800       -0.27900
C          4.56200       -0.92200       -1.29400
O          3.82700        0.05400       -1.22600
C          4.82400       -1.68300       -2.49200
O          5.73900       -2.70800       -2.46300
C          5.84300       -3.17000       -3.73400
C          5.01500       -2.48800       -4.59200
C          4.34700       -1.53000       -3.78500
N          6.77700       -4.22900       -3.94900
O          6.85500       -4.65900       -5.10700
O          7.43400       -4.63000       -2.98000
H          6.99300        1.09200        1.25300
H          6.49100        1.02100       -0.45200
H          7.60800       -0.18200        0.17000
H          4.66700        0.09900        1.04700
H          5.82200       -1.07500        1.68600
H          4.91700       -2.64600       -5.65700
H          3.62600       -0.78600       -4.10000
