30
946-33-8.pdb
O          1.74700        0.41800        0.96000
C          0.80000        0.23800        0.20100
C          0.00500        1.40400       -0.34300
C         -1.41600        1.28400        0.18600
C         -2.03400       -0.05900       -0.20700
C         -1.16900       -1.24300        0.23900
C          0.29500       -1.13500       -0.23300
C          1.11400       -2.30500        0.33700
C          2.56500       -2.36200       -0.08300
C          3.57100       -2.27600        0.89200
C          4.91900       -2.33200        0.53800
C          5.28000       -2.48000       -0.79800
C          4.29100       -2.57900       -1.77700
C          2.94000       -2.52400       -1.42300
H          0.03000        1.37000       -1.43800
H          0.46300        2.34500       -0.02400
H         -2.03100        2.10400       -0.19900
H         -1.40800        1.37100        1.28000
H         -2.17100       -0.09500       -1.29400
H         -3.02900       -0.14600        0.24600
H         -1.61400       -2.17200       -0.13600
H         -1.19700       -1.29800        1.33500
H          0.32900       -1.16200       -1.32900
H          0.65000       -3.25300        0.03100
H          1.05400       -2.28700        1.43300
H          3.30700       -2.14600        1.94000
H          5.68300       -2.25200        1.30700
H          6.33100       -2.51500       -1.07500
H          4.57600       -2.69900       -2.81900
H          2.18700       -2.61400       -2.20100
