26
946-80-5.pdb
C          0.90800        0.06900       -0.11100
O          0.40700        1.39800       -0.25600
C         -0.95100        1.55700       -0.27000
C         -1.90200        0.53500       -0.22500
C         -3.26500        0.84600       -0.25100
C         -3.68300        2.17500       -0.31900
C         -2.73800        3.19600       -0.36500
C         -1.37800        2.88500       -0.34200
C          2.42100        0.08200       -0.05000
C          3.12600        1.16900        0.48900
C          4.51800        1.13700        0.58500
C          5.22200        0.01400        0.15700
C          4.53500       -1.07700       -0.37000
C          3.14300       -1.04600       -0.47100
H          0.59200       -0.52900       -0.97400
H          0.53900       -0.38000        0.81900
H         -1.62000       -0.51000       -0.17200
H         -4.00300        0.04900       -0.21700
H         -4.74300        2.41300       -0.33800
H         -3.05600        4.23400       -0.41800
H         -0.64200        3.68500       -0.37900
H          2.59200        2.05100        0.83500
H          5.05100        1.99000        0.99700
H          6.30500       -0.01200        0.23800
H          5.08400       -1.95600       -0.70100
H          2.62400       -1.90900       -0.88000
