25
947-62-6.pdb
C          1.02800        0.58700        0.06800
O          2.35500        0.08800       -0.09300
C          3.08400        0.54300       -1.16800
C          2.71400        1.67500       -1.89300
C          3.48700        2.11100       -2.96300
C          4.65600        1.44200       -3.33000
C          5.39700        1.93800       -4.41500
C          6.57500        1.32400       -4.82400
C          7.02000        0.19900       -4.15300
C          6.28400       -0.31100       -3.07700
C          5.07800        0.28800       -2.61600
C          4.26400       -0.16500       -1.51500
C          4.67000       -1.39600       -0.73500
O          3.66500       -2.03700       -0.09500
O          5.80300       -1.84800       -0.69400
H          0.57800        0.06300        0.91600
H          0.42400        0.36900       -0.81900
H          1.02600        1.65600        0.30300
H          1.83300        2.26000       -1.64900
H          3.16600        2.99800       -3.50800
H          5.06100        2.82200       -4.95600
H          7.14000        1.72400       -5.66100
H          7.94200       -0.29100       -4.45600
H          6.69000       -1.20100       -2.60100
H          2.84800       -1.50000       -0.04200
