26
947-73-9.pdb
N          0.98700       -0.03600       -0.19600
C          2.38500       -0.11200       -0.00800
C          3.10000        1.09100       -0.04000
C          4.49400        1.12500       -0.01000
C          5.15800        2.36700       -0.01100
C          6.54800        2.44300       -0.00200
C          7.29200        1.27500        0.00800
C          6.64300        0.03700        0.01400
C          5.22800       -0.08400        0.00700
C          4.51600       -1.33500        0.00000
C          5.17600       -2.59200        0.00400
C          4.48800       -3.80600       -0.01200
C          3.10700       -3.80600       -0.03500
C          2.42100       -2.59200       -0.04500
C          3.09100       -1.34300       -0.02100
H          0.58200        0.84300        0.11000
H          0.47200       -0.82800        0.16700
H          2.54700        2.02700       -0.09000
H          4.58800        3.29400       -0.02100
H          7.04300        3.41000       -0.00700
H          8.37800        1.31900        0.00700
H          7.27900       -0.84400        0.01800
H          6.26000       -2.65400        0.01300
H          5.03700       -4.74300       -0.00900
H          2.55800       -4.74300       -0.04800
H          1.33700       -2.64100       -0.07200
