25
948-03-8.pdb
C          1.22300       -0.12400       -0.00600
O          2.64500       -0.20300        0.06800
C          3.20700       -0.95000       -0.91200
O          2.60900       -1.50700       -1.81700
C          4.68800       -0.91700       -0.83200
C          5.38400       -0.94000       -2.04400
C          6.77800       -0.95800       -2.05200
C          7.50400       -0.96600       -0.85200
C          8.90800       -1.01300       -0.89000
C          9.65900       -1.04500        0.28300
C          9.01500       -1.02900        1.51100
C          7.61900       -0.98000        1.56700
C          6.82400       -0.94800        0.39300
C          5.40000       -0.92300        0.37900
O          4.67400       -0.96400        1.54300
H          0.87100        0.48400        0.83200
H          0.77500       -1.11900        0.07600
H          0.92100        0.36200       -0.93800
H          4.84200       -0.95600       -2.98800
H          7.29300       -0.98300       -3.01000
H          9.43400       -1.03400       -1.84300
H         10.74400       -1.09000        0.23500
H          9.59600       -1.06000        2.43000
H          7.17400       -0.98000        2.55700
H          5.24500       -0.81200        2.30700
