26
948-65-2.pdb
N         -1.57100        0.99000        0.00400
C         -0.24500        0.62500        0.01900
C          0.91200        1.41300       -0.00100
C          2.14300        0.74900       -0.00800
C          2.21100       -0.64300        0.00800
C          1.04400       -1.41300        0.03600
C         -0.20600       -0.76600        0.03900
C         -1.55300       -1.22000        0.03400
C         -2.39000       -0.11900       -0.02000
C         -3.84300       -0.03600       -0.17000
C         -4.58100        1.01200        0.39500
C         -5.95800        1.11100        0.17500
C         -6.61100        0.16000       -0.60800
C         -5.89300       -0.90000       -1.15400
C         -4.51800       -1.00000       -0.93200
H         -1.89700        1.94300       -0.05200
H          0.86300        2.49600       -0.01900
H          3.06200        1.33000       -0.03300
H          3.17800       -1.13800       -0.00600
H          1.10100       -2.49700        0.04000
H         -1.87400       -2.25400        0.03200
H         -4.09800        1.75900        1.01900
H         -6.52100        1.93200        0.61200
H         -7.67900        0.24400       -0.79100
H         -6.39800       -1.64700       -1.76300
H         -3.97400       -1.82500       -1.38300
