25
949-99-5.pdb
N          0.81100       -0.18000       -0.28000
C          1.86000       -1.15800       -0.71500
C          3.02300       -1.28100        0.28600
C          2.65100       -1.77800        1.66900
C          2.62800       -3.15700        1.93100
C          2.31400       -3.64000        3.20400
C          2.01400       -2.73700        4.22700
C          2.02000       -1.35700        3.98200
C          2.34100       -0.88300        2.70500
N          1.70500       -3.23600        5.57200
O          1.72700       -4.46400        5.75500
O          1.44400       -2.40300        6.45100
C          1.20400       -2.52200       -0.98100
O         -0.13800       -2.47800       -0.77100
O          1.79500       -3.52900       -1.33600
H          1.21200        0.75700       -0.38100
H          0.67400       -0.28100        0.73100
H          2.24100       -0.81200       -1.68300
H          3.52000       -0.30600        0.38400
H          3.78600       -1.95400       -0.12700
H          2.86300       -3.87400        1.14300
H          2.31600       -4.71400        3.37500
H          1.79200       -0.64300        4.77200
H          2.35700        0.19200        2.53400
H         -0.34500       -1.53400       -0.56100
