16
95-01-2.pdb
O          2.35600       -0.98200       -0.01500
C          1.19100       -0.27400       -0.00900
C          1.19400        1.12000       -0.00500
C         -0.02100        1.80900        0.00800
C         -1.22600        1.09600        0.01500
C         -2.49000        1.85300        0.03900
O         -3.57200        1.27300        0.04300
C         -1.21300       -0.30400        0.00400
O         -2.35300       -1.06200        0.00400
C         -0.00200       -0.98900       -0.00700
H          3.10600       -0.36600        0.00400
H          2.12400        1.68000       -0.01100
H         -0.01500        2.89600        0.01200
H         -2.42100        2.95300        0.05400
H         -3.12600       -0.45500        0.01000
H          0.01100       -2.07500       -0.01200
