29
951-77-9.pdb
N          1.21000        0.59500        0.86500
C          2.55500        0.41400        0.71400
N          3.12500        1.00100       -0.29000
C          4.48400        0.88800       -0.46800
O          5.04500        1.50000       -1.37400
N          5.21300        0.07300        0.40900
C          4.59700       -0.55000        1.47100
C          3.28700       -0.42600        1.68100
C          6.66400        0.08700        0.27500
C          7.21100       -0.40900       -1.06200
C          8.42100       -1.24800       -0.70500
O          9.53700       -0.92100       -1.51700
C          8.58600       -1.08400        0.80700
C          9.60700       -0.04000        1.27000
O         10.90600       -0.33100        0.76900
O          7.28800       -0.72300        1.29400
H          0.77000        0.97800        0.03200
H          0.67700       -0.14100        1.31200
H          5.20900       -1.13100        2.15400
H          2.77300       -0.87600        2.51800
H          6.99000        1.12200        0.44000
H          7.45700        0.42600       -1.72800
H          6.47500       -1.02800       -1.59000
H          8.17900       -2.29700       -0.91700
H         10.18300       -0.40000       -0.99700
H          8.86400       -2.05000        1.24400
H          9.64300        0.00200        2.36400
H          9.33000        0.96200        0.93000
H         11.21800       -1.14100        1.21500
