44
95167-41-2.pdb
C          1.30600        0.68700       -0.28100
C          2.56700       -0.02600        0.17900
N          3.00000       -1.10200       -0.73000
C          2.05000       -2.17300       -1.08200
C          1.75200       -3.10300        0.08600
C          4.34200       -1.50000       -0.62700
C          5.09000       -1.36100        0.55400
C          6.44900       -1.69500        0.60900
C          7.09500       -2.17400       -0.52800
C          6.37600       -2.30600       -1.71600
C          5.01000       -2.00000       -1.75400
C          8.55800       -2.39900       -0.45300
N          9.31000       -3.20800       -1.14100
N          8.70900       -4.14000       -1.92600
C          9.36200       -4.67100       -3.02700
O         10.50600       -4.40300       -3.37500
C          8.54700       -5.62300       -3.84300
C          7.14400       -5.58000       -3.86700
C          6.42100       -6.46800       -4.66700
C          7.10500       -7.39500       -5.45000
O          6.43400       -8.27300       -6.24500
C          8.49000       -7.43900       -5.45000
C          9.21700       -6.55200       -4.65000
H          1.17100        1.60500        0.30200
H          0.41700        0.06800       -0.12300
H          1.35600        0.96100       -1.33900
H          2.41800       -0.40900        1.19500
H          3.35300        0.73900        0.22100
H          2.42300       -2.77000       -1.92300
H          1.11300       -1.73400       -1.44100
H          2.65500       -3.61600        0.43200
H          1.03100       -3.86900       -0.22000
H          1.32400       -2.56000        0.93400
H          4.62700       -0.98300        1.46100
H          6.99000       -1.55500        1.54200
H          6.87100       -2.57900       -2.64300
H          4.48300       -2.08200       -2.70200
H          9.08600       -1.75900        0.27500
H          7.82500       -4.51600       -1.60700
H          6.58600       -4.84500       -3.29700
H          5.33700       -6.41400       -4.67500
H          5.48100       -8.10300       -6.17300
H          9.01400       -8.16200       -6.07100
H         10.30600       -6.58000       -4.66300
