28
95211-68-0.pdb
C          2.96500        1.10000        0.80700
C          2.48300       -0.07400       -0.04400
C          2.96800        0.09400       -1.49700
C          2.35300       -0.97300       -2.41000
C          2.47300       -2.35000       -1.81800
C          2.74300       -2.53400       -0.47800
C          2.94800       -1.43500        0.53100
S          2.89000       -4.17400       -0.08100
C          2.58100       -4.67900       -1.69500
N          2.60300       -6.00500       -1.97200
C          2.31400       -3.60100       -2.53700
C          1.92400       -3.66000       -3.94800
N          2.29600       -4.75400       -4.66800
O          1.32500       -2.74800       -4.52200
H          2.59900        2.04600        0.39200
H          4.05800        1.15000        0.83900
H          2.59200        1.02100        1.83200
H          1.38500       -0.05700       -0.04700
H          4.06300        0.01700       -1.52700
H          2.70700        1.08600       -1.88000
H          2.85800       -0.93200       -3.38100
H          1.29200       -0.74800       -2.57100
H          4.01400       -1.38800        0.79000
H          2.39400       -1.64900        1.45300
H          2.57300       -6.63700       -1.16900
H          2.08700       -6.37100       -2.76700
H          3.05500       -5.32900       -4.32200
H          2.18800       -4.66300       -5.67000
