35
953-91-3.pdb
C          2.42100        0.49000        1.00800
C          0.95800        0.35800        0.70500
C          0.51800       -0.03600       -0.56800
C         -0.84500       -0.17700       -0.83400
C         -1.77200        0.08100        0.17900
C         -1.35200        0.48000        1.45000
C          0.01300        0.61800        1.70900
S         -3.50200       -0.19900       -0.10100
O         -3.69700       -0.43500       -1.51700
O         -3.89800       -1.18700        0.88500
O         -4.21300        1.22500        0.27200
C         -5.62100        1.37200        0.06100
C         -5.97300        2.85000        0.29000
C         -7.47700        3.11200        0.30800
C         -8.19100        2.21000        1.30600
C         -7.90400        0.74500        1.01100
C         -6.40800        0.46600        1.01300
H          3.03600        0.26200        0.13200
H          2.70300       -0.20600        1.80600
H          2.65000        1.51200        1.32400
H          1.23700       -0.25400       -1.35500
H         -1.17000       -0.50800       -1.81700
H         -2.07400        0.65400        2.24500
H          0.34000        0.91000        2.70400
H         -5.85800        1.11800       -0.98100
H         -5.50200        3.46500       -0.48900
H         -5.53100        3.18900        1.23600
H         -7.89200        2.94900       -0.69300
H         -7.66700        4.16100        0.56500
H         -9.27100        2.38700        1.26800
H         -7.86300        2.45100        2.32600
H         -8.32600        0.47600        0.03600
H         -8.39300        0.11200        1.75900
H         -6.26500       -0.58300        0.73400
H         -6.00700        0.57100        2.02900
