27
953-26-4.pdb
C          2.51900       -1.34300       -1.73500
C          2.61100       -0.36900       -0.57500
O          3.15300        0.86100       -1.07200
C          4.50700        0.93400       -1.08000
O          5.29100        0.18600       -0.52200
C          4.87200        2.02800       -1.99800
C          6.15800        2.26700       -2.29500
C          6.58700        3.27800       -3.27000
C          5.84000        4.44200       -3.51500
C          6.26700        5.38200       -4.45400
C          7.46200        5.17000       -5.14700
C          8.23300        4.02600       -4.90100
C          7.79200        3.08700       -3.96300
N          7.90900        6.15500       -6.13900
O          7.18500        7.14100       -6.33800
O          8.98300        5.94200       -6.72000
H          2.09500       -2.29900       -1.41700
H          3.50600       -1.52100       -2.17300
H          1.89500       -0.92400       -2.53200
H          3.20600       -0.77600        0.25000
H          1.61100       -0.15400       -0.18400
H          4.04900        2.56200       -2.45600
H          6.94400        1.66700       -1.83700
H          4.91400        4.63400       -2.97800
H          5.65700        6.26700       -4.63000
H          9.16900        3.85000       -5.42900
H          8.39800        2.20000       -3.78200
