26
95735-63-0.pdb
C          1.13100        0.17700        0.47900
O          2.48200        0.01100        0.06400
C          3.10000        1.12300       -0.44900
C          2.71700        2.42700       -0.10400
C          3.42000        3.53200       -0.59200
C          4.51800        3.35500       -1.42900
S          5.45300        4.76800       -1.98000
C          4.61700        5.12000       -3.56700
C          3.16300        5.52900       -3.29000
O          2.98600        6.57700       -2.60300
O          2.29100        4.79700       -3.84800
C          4.91700        2.06100       -1.76500
C          4.21300        0.94300       -1.29100
O          4.75900       -0.25300       -1.68900
C          3.84600       -1.32000       -1.90900
H          0.72500       -0.81700        0.69300
H          0.52000        0.62300       -0.31300
H          1.06900        0.75900        1.40500
H          1.88400        2.62600        0.55900
H          3.09800        4.53700       -0.32000
H          4.67300        4.24200       -4.21900
H          5.13300        5.94600       -4.06100
H          5.78000        1.91200       -2.40800
H          4.33600       -2.04100       -2.57100
H          2.92800       -0.98900       -2.40600
H          3.63100       -1.84300       -0.97300
