31
958-09-8.pdb
N          0.47500       -2.16100        0.05300
C          1.64700       -2.76900       -0.37300
N          1.55300       -3.86200       -1.16300
C          2.69600       -4.47400       -1.54700
N          3.97100       -4.14000       -1.25100
C          4.00400       -3.04000       -0.48000
N          5.10400       -2.41300        0.04400
C          4.65900       -1.31400        0.73300
N          3.34700       -1.21300        0.71000
C          2.92400       -2.30100       -0.02500
C          6.46800       -2.87900       -0.06500
C          7.22200       -2.34600       -1.27300
C          8.65000       -2.34200       -0.77800
O          9.19900       -3.65100       -0.94100
C          8.50700       -1.97800        0.69700
C          8.55100       -0.46600        0.93900
O          8.37500       -0.18400        2.32600
O          7.20800       -2.46700        1.11000
H         -0.31900       -2.37900       -0.53100
H          0.59900       -1.20000        0.35800
H          2.56900       -5.35100       -2.17600
H          5.32900       -0.63400        1.24300
H          6.45300       -3.97500       -0.05800
H          6.90400       -1.32500       -1.51600
H          7.06400       -2.97400       -2.15600
H          9.29200       -1.65200       -1.33400
H          8.93000       -4.21600       -0.19400
H          9.24900       -2.48000        1.32800
H          7.75400        0.05500        0.40000
H          9.51500       -0.05100        0.63100
H          7.59400       -0.68900        2.62200
