30
959-28-4.pdb
O          1.05200       -0.32500        0.15300
C          2.23100       -0.02600       -0.00500
C          2.98600       -0.43000       -1.21700
C          2.30600       -0.85700       -2.28800
C          3.05300       -1.32300       -3.48200
O          4.20600       -0.97300       -3.69900
C          2.33100       -2.22100       -4.42200
C          2.69600       -2.22000       -5.77300
C          2.04000       -3.06100       -6.67400
C          1.02900       -3.91300       -6.22700
C          0.67500       -3.93100       -4.87900
C          1.32700       -3.09100       -3.97500
C          2.97800        0.70300        1.04900
C          2.62900        0.49100        2.38800
C          3.32900        1.14500        3.40300
C          4.36600        2.02100        3.08200
C          4.69800        2.25700        1.74800
C          4.00400        1.60200        0.72900
H          4.06900       -0.41000       -1.19500
H          1.22200       -0.88500       -2.30500
H          3.48900       -1.56400       -6.12700
H          2.32000       -3.05600       -7.72500
H          0.52100       -4.57000       -6.92800
H         -0.10300       -4.60400       -4.52800
H          1.05100       -3.14600       -2.92500
H          1.81900       -0.19000        2.64200
H          3.06600        0.97000        4.44300
H          4.91200        2.52900        3.87400
H          5.49500        2.95300        1.50000
H          4.26300        1.81700       -0.30400
