10
96-50-4.pdb
N          2.12600        0.07800       -0.16100
C          0.80700       -0.15700       -0.09200
S         -0.33100        1.13000       -0.03600
C         -1.60600       -0.01100        0.02400
C         -1.08200       -1.28500        0.01000
N          0.29500       -1.36200       -0.04700
H          2.46800        0.98100        0.14100
H          2.72300       -0.70400        0.08200
H         -2.64200        0.29200        0.06400
H         -1.66200       -2.20000        0.04000
