24
96-81-1.pdb
C          2.89500       -2.72500       -1.37500
C          2.54400       -2.37200        0.07500
C          1.02900       -2.20000        0.22600
C          3.30700       -1.12800        0.59500
N          2.99200        0.07800       -0.20500
C          2.99800        1.33700        0.35700
C          2.47400        2.40900       -0.56200
O          3.41700        1.56600        1.48500
C          4.82300       -1.43000        0.62500
O          5.55900       -0.57000       -0.12000
O          5.32500       -2.38000        1.20700
H          2.31500       -3.59000       -1.71500
H          3.95400       -2.98500       -1.47100
H          2.68700       -1.89900       -2.06200
H          2.83000       -3.23300        0.69400
H          0.65000       -1.36300       -0.36900
H          0.76200       -2.02100        1.27300
H          0.50300       -3.10300       -0.10200
H          3.02100       -0.92300        1.63300
H          2.36300       -0.04600       -0.99100
H          2.74900        2.19000       -1.59800
H          2.91600        3.37000       -0.28900
H          1.38600        2.46700       -0.47800
H          4.97600        0.13500       -0.46400
