20
96-98-0.pdb
C          2.50100        0.06800       -0.01100
C          0.99900       -0.04100       -0.01500
C          0.26600        1.16000       -0.01300
C         -1.13100        1.15800       -0.02000
C         -1.83900       -0.04500       -0.03300
C         -1.13700       -1.25500       -0.01600
C          0.27900       -1.25800       -0.01300
N          0.94700       -2.58200       -0.00300
O          2.18300       -2.63000        0.00800
O          0.21700       -3.58200       -0.01800
C         -3.32400        0.03400       -0.00100
O         -3.96200       -0.99900       -0.58600
O         -3.91300        0.98300        0.48900
H          2.82700        1.11500       -0.00400
H          2.92200       -0.38600       -0.91300
H          2.92100       -0.39600        0.88600
H          0.78100        2.12100        0.00100
H         -1.66500        2.10800       -0.00600
H         -1.68300       -2.19500        0.03300
H         -3.41600       -1.63600       -1.07900
