32
961-07-9.pdb
N          3.53700        0.57500       -3.99300
C          4.13900        0.33800       -2.80100
N          4.38900       -0.88600       -2.43700
C          4.99000       -1.13900       -1.19800
O          5.28300       -2.27200       -0.82900
C          5.24700        0.04700       -0.37100
N          5.79200        0.15200        0.88900
C          5.79500        1.44500        1.14500
N          5.25800        2.18500        0.11400
C          5.19600        3.63300        0.13800
C          4.28700        4.20900        1.21100
C          3.84200        5.54100        0.63500
O          4.25400        6.58700        1.50000
C          4.38500        5.55100       -0.80700
C          5.62700        6.42200       -1.04600
O          5.38300        7.77600       -0.69300
O          4.70500        4.17500       -1.10600
C          4.93400        1.29500       -0.85800
N          4.40500        1.47000       -2.07100
H          3.50200       -0.27500       -4.55100
H          3.90600        1.35000       -4.52600
H          6.17400        1.90000        2.05200
H          6.22700        3.97700        0.27300
H          4.80200        4.29800        2.17400
H          3.41000        3.56800        1.36600
H          2.74500        5.56400        0.60600
H          4.87800        7.18400        1.04000
H          3.59300        5.88000       -1.49100
H          5.94700        6.36400       -2.09200
H          6.47400        6.07300       -0.44600
H          4.81700        8.16600       -1.38500
H          4.12500        2.38100       -2.42100
