18
96784-54-2.pdb
C          0.96100        0.04400        0.12000
C          2.46200       -0.03400        0.03300
C          3.17200        1.18700       -0.00600
C          4.56800        1.22000       -0.11400
C          5.28500        0.02500       -0.16900
C          4.60800       -1.19700       -0.12600
C          3.20100       -1.23700       -0.03200
N          2.56500       -2.57500       -0.01800
O          1.33100       -2.65100        0.03000
O          3.31300       -3.56300       -0.06000
C          5.25600        2.47700       -0.18100
N          5.81000        3.49400       -0.24600
H          0.61600        1.08100        0.19700
H          0.59500       -0.47200        1.01300
H          0.50400       -0.37600       -0.78100
H          2.62500        2.13000        0.03900
H          6.37000        0.03200       -0.25200
H          5.19600       -2.11300       -0.17500
