24
96989-50-3.pdb
S          1.03700       -0.67600        0.07500
C          2.61600       -0.14000        0.11300
O          3.23200        0.10600       -1.10200
C          4.41600        0.87400       -1.11200
C          5.30200        0.63700       -2.15200
C          6.44100        1.43200       -2.23200
C          6.63900        2.43300       -1.28500
C          5.68200        2.60300       -0.29700
N          4.56900        1.84800       -0.19300
O          3.48300       -0.29600        1.18400
C          3.03000        0.03800        2.48100
C          3.56600       -0.68700        3.53500
C          3.17600       -0.34400        4.82600
C          2.28200        0.70800        5.01000
C          1.82100        1.38200        3.89000
N          2.18400        1.07800        2.62700
H          5.10700       -0.13900       -2.88300
H          7.16300        1.28000       -3.02900
H          7.51300        3.07300       -1.32200
H          5.78500        3.37700        0.45800
H          4.26500       -1.49500        3.35800
H          3.56600       -0.89100        5.68000
H          1.95500        0.99900        6.00200
H          1.12400        2.21100        3.98100
