19
97-14-3.pdb
C          1.05200        1.15200       -1.01100
C          2.53300        1.34500       -1.16300
O          3.06300        2.44600       -1.21300
N          3.23800        0.17500       -1.35200
C          4.71700        0.18800       -1.35300
C          5.25500       -1.14300       -0.82000
O          4.66600       -1.42700        0.45400
C          5.30900        0.42200       -2.74700
O          4.37500        0.61200       -3.71300
O          6.50600        0.40600       -2.99100
H          0.61700        2.04000       -0.54500
H          0.83300        0.28800       -0.37800
H          0.60800        1.00700       -1.99900
H          2.81500       -0.67600       -0.98800
H          5.04200        1.00900       -0.70600
H          6.34500       -1.12900       -0.71100
H          4.99700       -1.97100       -1.48900
H          4.90600       -0.69700        1.05500
H          3.48400        0.64000       -3.30700
