17
97-59-6.pdb
N          1.14500       -0.05600        0.17800
C          2.49100        0.05700        0.11700
O          3.05300        0.51200       -0.86900
N          3.12000       -0.45400        1.20600
C          4.54400       -0.37400        1.30100
N          5.04200       -1.45700        2.08700
C          5.87100       -1.03200        3.09500
O          6.48100       -1.76400        3.85100
N          5.88100        0.32100        3.11000
C          5.07600        0.82100        2.12900
O          4.82000        2.00600        1.97900
H          0.61600        0.28200       -0.61500
H          0.64800       -0.37700        0.99300
H          2.60400       -0.46800        2.07000
H          5.03500       -0.39000        0.32200
H          4.97300       -2.43100        1.83400
H          6.37000        0.87300        3.79300
