24
97-53-0.pdb
C          1.11900       -0.14000       -0.02500
O          2.53800       -0.14100       -0.04800
C          3.17100        1.07500       -0.06800
C          2.52500        2.31700       -0.06600
C          3.26200        3.51600       -0.07100
C          2.55900        4.85300       -0.02200
C          2.26100        5.43000       -1.37700
C          2.71100        6.61600       -1.80400
C          4.66100        3.45400       -0.10500
C          5.31700        2.22200       -0.10400
C          4.57200        1.04300       -0.08200
O          5.21600       -0.16600       -0.07100
H          0.78200       -1.18200       -0.02800
H          0.70900        0.34300       -0.91800
H          0.74000        0.32900        0.88900
H          1.44200        2.38200       -0.04800
H          3.16200        5.54900        0.57400
H          1.61400        4.74400        0.52600
H          1.61100        4.84900       -2.02800
H          3.35200        7.24200       -1.19100
H          2.43700        6.99600       -2.78500
H          5.24900        4.36900       -0.12000
H          6.40200        2.20000       -0.11400
H          6.17300       -0.01500       -0.08000
