17
97-51-8.pdb
O          2.28300       -0.07300        0.02600
C          0.91800       -0.02100        0.01700
C          0.18300       -1.20900        0.00500
C         -1.21400       -1.16200       -0.01000
C         -1.86800        0.07900       -0.01200
C         -1.13600        1.27100        0.00400
C          0.26300        1.21700        0.02000
C          1.02800        2.48100        0.04000
O          0.46400        3.57000        0.04100
N         -3.33600        0.12600       -0.03200
O         -3.94400       -0.95400       -0.04400
O         -3.87800        1.23900       -0.03600
H          2.57500       -1.00100       -0.00400
H          0.67600       -2.17800        0.00600
H         -1.77500       -2.09500       -0.02000
H         -1.63600        2.23900        0.00400
H          2.12800        2.41100        0.05500
