24
97-54-1.pdb
C          0.97600       -0.14800        0.09600
O          2.39600       -0.17200        0.07700
C          3.04100        1.03800        0.06900
C          2.39900        2.28300        0.07600
C          3.13100        3.48100        0.07300
C          2.47600        4.80300        0.05900
C          1.28900        5.08000        0.62000
C          0.64600        6.43200        0.61200
C          4.53000        3.41300        0.03400
C          5.18600        2.17900        0.03000
C          4.44100        1.00100        0.05100
O          5.08100       -0.21000        0.05100
H          0.61900       -1.18300        0.08500
H          0.57700        0.34900       -0.79500
H          0.60200        0.32200        1.01200
H          1.31700        2.33900        0.07700
H          3.03100        5.59700       -0.43900
H          0.72700        4.30800        1.14300
H          1.25300        7.17900        0.09300
H          0.48900        6.77300        1.64000
H         -0.32800        6.37600        0.11800
H          5.12500        4.32400        0.01800
H          6.27100        2.15600        0.01300
H          6.04000       -0.06500        0.05900
