36
97-77-8.pdb
C          3.96200       -0.50200       -2.10800
C          3.06000       -0.74100       -0.90500
N          3.63700       -1.68100        0.08200
C          3.26400       -3.11100       -0.00700
C          2.44000       -3.58000       -1.20200
C          4.47200       -1.20200        1.13500
S          4.93600        0.41400        1.33600
S          4.93900       -2.39400        2.38900
S          7.00000       -2.23300        2.48100
C          7.57700       -3.58100        3.48700
S          6.80200       -5.06100        3.66300
N          8.84700       -3.32500        4.02200
C          9.05400       -2.17900        4.91900
C         10.15500       -1.23000        4.47700
C          9.95800       -4.26500        3.80800
C         10.51400       -4.89700        5.07200
H          3.50200        0.23300       -2.78100
H          4.12800       -1.42000       -2.67600
H          4.94200       -0.11500       -1.81100
H          2.08100       -1.09700       -1.23400
H          2.85000        0.21700       -0.42000
H          2.69500       -3.34700        0.90000
H          4.18900       -3.69800        0.01500
H          1.44700       -3.12100       -1.21700
H          2.28700       -4.66300       -1.14100
H          2.94100       -3.36800       -2.15000
H          9.28500       -2.57700        5.91100
H          8.11600       -1.62400        5.03800
H         11.12500       -1.73200        4.42000
H         10.25200       -0.40800        5.19500
H          9.93500       -0.80400        3.49400
H         10.75300       -3.71600        3.29100
H          9.64500       -5.05400        3.11600
H         10.96000       -4.14600        5.73500
H         11.30100       -5.61300        4.81600
H          9.73700       -5.42400        5.63200
