23
97-74-5.pdb
C          1.08200        1.79600        0.82700
N          2.53400        1.86800        0.66400
C          3.28900        2.32300        1.83100
C          3.15100        1.38800       -0.50900
S          2.32500        0.77000       -1.84700
S          4.90700        1.25200       -0.46800
C          5.50300        2.77200       -1.16600
S          4.47800        4.01500       -1.67300
N          6.92000        2.85700       -1.23800
C          7.85500        1.82000       -0.78500
C          7.61600        4.03100       -1.77500
H          0.76200        2.24500        1.77100
H          0.77100        0.74900        0.81300
H          0.59500        2.33500        0.00800
H          2.62500        2.68300        2.62000
H          3.94800        3.14500        1.54000
H          3.88500        1.49400        2.22600
H          7.39600        0.91800       -0.38900
H          8.48800        2.24900       -0.00200
H          8.48500        1.53100       -1.63300
H          6.96100        4.82000       -2.13900
H          8.24900        3.70700       -2.60800
H          8.24900        4.44900       -0.98600
