24
97-88-1.pdb
C          1.07500       -0.07500        0.04900
C          2.59500       -0.09500        0.02800
C          3.12200       -1.01200       -1.07200
C          4.64800       -1.02200       -1.12000
O          5.10300       -1.87100       -2.18700
C          5.11300       -1.29200       -3.41600
O          4.77200       -0.14300       -3.65300
C          5.57600       -2.24900       -4.45800
C          6.01900       -3.64000       -4.12400
C          5.58200       -1.80800       -5.72900
H          0.71400        0.58800        0.84100
H          0.67200       -1.07600        0.23200
H          0.67400        0.28600       -0.90400
H          2.96600       -0.42800        1.00400
H          2.96400        0.92500       -0.13000
H          2.71900       -0.69600       -2.04100
H          2.76000       -2.03700       -0.92000
H          5.05100       -1.43400       -0.18800
H          5.06200       -0.01200       -1.22500
H          5.95700       -3.87800       -3.06000
H          7.06100       -3.78800       -4.42900
H          5.40000       -4.37200       -4.65500
H          5.26200       -0.80000       -5.98600
H          5.90800       -2.44100       -6.54700
