36
975-17-7.pdb
O          0.97500       -0.13400       -0.06800
C          2.34000       -0.08200       -0.08500
C          3.09500       -1.25000       -0.06000
C          4.49200       -1.16600       -0.06500
O          5.17100       -2.35700       -0.03900
C          6.56000       -2.34900       -0.05700
C          7.20300       -3.52500       -0.09000
C          8.67700       -3.58300       -0.10600
O          9.28600       -4.64600       -0.16500
C          9.42700       -2.29900       -0.03600
C          8.76800       -1.13600        0.00100
C          7.29600       -1.07200       -0.04200
C          6.63000        0.11300       -0.06900
C          7.38800        1.39100       -0.07500
C          7.76000        1.97900       -1.29200
C          8.54300        3.13400       -1.30200
C          8.93700        3.72100       -0.10000
C          8.53900        3.16200        1.11500
C          7.76800        1.99800        1.12900
C          5.14600        0.06600       -0.09700
C          4.36900        1.23500       -0.13800
C          2.97600        1.15600       -0.12500
O          2.22300        2.29700       -0.14400
O         10.80700       -2.34900       -0.01600
H          0.68600       -1.05900       -0.04300
H          2.61800       -2.22500       -0.03300
H          6.68000       -4.47100       -0.10800
H          9.35300       -0.22500        0.06300
H          7.45800        1.52900       -2.23500
H          8.85600        3.57000       -2.24700
H          9.56000        4.61300       -0.10900
H          8.84200        3.62500        2.05000
H          7.48300        1.55800        2.08200
H          4.84700        2.20800       -0.17900
H          2.81000        3.06900       -0.12100
H         11.02900       -3.30200       -0.07800
