53
976-71-6.pdb
C          2.71500       -1.25700        2.10000
C          3.94300       -2.15300        1.83800
C          4.22500       -2.95100        3.15500
C          5.11000       -2.27600        4.18000
C          6.23300       -1.45500        3.58800
O          7.22800       -1.16000        4.26500
C          6.14800       -0.95900        2.20800
C          5.10600       -1.25400        1.42900
C          5.06600       -0.83600        0.01400
C          5.10500       -1.85800       -0.86700
C          3.97600       -2.89700       -0.77000
C          3.82400       -3.25700        0.72800
C          2.64900       -4.21800        0.87100
C          3.18500       -5.56200        0.38200
C          3.45400       -5.57600       -1.14300
C          2.07200       -5.78000       -1.80800
C          4.16600       -4.22500       -1.63000
C          5.63300       -4.66200       -1.79500
C          5.53000       -6.03600       -2.41800
C          4.43500       -6.75400       -1.61100
C          5.03200       -7.66700       -0.52900
C          4.72200       -9.08400       -0.94800
C          4.14400       -8.94400       -2.31100
O          3.92400       -9.86600       -3.07800
O          3.81300       -7.65000       -2.55200
H          2.46800       -0.60000        1.25700
H          2.90500       -0.60100        2.95900
H          1.82100       -1.84100        2.33900
H          4.70000       -3.91500        2.92500
H          3.28300       -3.22400        3.64000
H          5.56200       -3.06500        4.79600
H          4.51800       -1.63200        4.84200
H          6.99100       -0.36200        1.87000
H          4.20700       -0.15600       -0.10900
H          6.08700       -2.35400       -0.87400
H          3.05900       -2.41100       -1.13000
H          4.74500       -3.83300        0.90100
H          1.78300       -3.87800        0.29900
H          2.31800       -4.32100        1.90500
H          2.50000       -6.36800        0.67100
H          4.11200       -5.73900        0.93800
H          1.32300       -5.06400       -1.46000
H          1.68500       -6.77800       -1.55700
H          2.12400       -5.70900       -2.89800
H          3.79600       -3.99300       -2.64200
H          6.14700       -4.72200       -0.83100
H          6.19500       -3.99000       -2.45300
H          6.49000       -6.56300       -2.41600
H          5.23300       -5.94500       -3.47200
H          4.62400       -7.54000        0.47300
H          6.11300       -7.52100       -0.41700
H          3.96200       -9.52600       -0.29500
H          5.61800       -9.70700       -0.95800
