34
97888-80-7.pdb
C          2.68700        0.84300        0.05800
C          1.29800        0.27600       -0.02500
C          1.20700       -1.13400       -0.02800
C         -0.02200       -1.81000       -0.02700
C         -1.18800       -1.04200       -0.02300
C         -1.13900        0.36300       -0.03200
C         -2.43200        1.13300       -0.02400
C          0.10700        1.03000       -0.05300
O          0.00700        2.40400       -0.03100
C          0.98900        3.13600       -0.75900
C          0.47100        4.46100       -1.29000
C         -0.63600        5.12300       -0.74100
C         -1.04400        6.35900       -1.24700
C         -0.34400        6.95500       -2.29800
C          0.76400        6.31600       -2.84200
C          1.17200        5.07900       -2.33900
C         -0.07400       -3.32700       -0.00600
O          1.03700       -3.94600       -0.00400
O         -1.22600       -3.86800        0.00700
H          3.43800        0.05500        0.18700
H          2.77800        1.51000        0.92000
H          2.95900        1.36600       -0.86300
H          2.11300       -1.74200       -0.01100
H         -2.14600       -1.56100       -0.00800
H         -3.30000        0.46300        0.00400
H         -2.51600        1.74300       -0.92800
H         -2.48600        1.77600        0.86000
H          1.33800        2.56100       -1.62200
H          1.81700        3.37100       -0.08100
H         -1.18700        4.67400        0.08300
H         -1.90700        6.86100       -0.81800
H         -0.66300        7.91700       -2.68400
H          1.31400        6.77700       -3.65900
H          2.04400        4.59300       -2.77200
