13
98-02-2.pdb
S          1.56500        1.06800        0.60700
C          2.77500       -0.12700       -0.03100
C          3.27400       -1.01800        1.04400
O          3.04200       -2.35400        0.88800
C          3.57000       -2.97900        1.97300
C          4.15100       -2.06500        2.82000
C          3.97100       -0.79800        2.21600
H          1.34300        1.68900       -0.56000
H          3.60800        0.42500       -0.47500
H          2.29900       -0.70700       -0.82900
H          3.44900       -4.05200        1.99800
H          4.63900       -2.28600        3.75800
H          4.28900        0.16400        2.59400
