21
98-33-9.pdb
C          1.83600        1.52900       -0.00800
C          0.56200        0.72900        0.02100
C         -0.66600        1.40900        0.05800
C         -1.86400        0.69200        0.06600
C         -1.86200       -0.69900        0.02200
C         -0.64300       -1.37500       -0.01800
C          0.57600       -0.68000        0.02500
N          1.76600       -1.39900       -0.16400
S         -3.40400        1.56500        0.03100
O         -3.08300        2.91600       -0.79400
O         -4.31200        0.82400       -0.81800
O         -3.73400        1.92900        1.38900
H          1.63500        2.60600       -0.03000
H          2.42200        1.28600       -0.89900
H          2.42900        1.32300        0.88900
H         -0.68600        2.49800        0.07100
H         -2.79400       -1.26100       -0.00000
H         -0.64600       -2.46100       -0.08700
H          1.71900       -2.36200        0.15100
H          2.59700       -0.92900        0.17900
H         -3.45300        2.80500       -1.69500
