22
98-44-2.pdb
N          2.39600        0.08700       -0.22900
C          1.01000        0.01200        0.00300
C          0.28500        1.21200       -0.00500
C         -1.11500        1.20300        0.05400
C         -1.82800        0.00600        0.06200
C         -1.12500       -1.19400        0.02700
C          0.28000       -1.18900       -0.01700
S          1.08600       -2.77300       -0.01200
O          1.20400       -3.14800       -1.57600
O          2.45000       -2.59200        0.44600
O          0.20300       -3.73100        0.61300
S         -2.00600        2.73300        0.03300
O         -1.06000        3.73500       -0.80700
O         -3.17800        2.54300       -0.79700
O         -2.08300        3.20800        1.39400
H          2.83100        0.93300        0.13300
H          2.91400       -0.73900        0.09100
H          0.81300        2.16400       -0.05300
H         -2.91600       -0.00000        0.08300
H         -1.67700       -2.13400        0.02300
H          2.13300       -3.00300       -1.84900
H         -1.44400        3.81800       -1.70600
