29
98-53-3.pdb
C          2.07400       -0.38400       -1.56900
C          2.25100       -0.19200       -0.05600
C          0.83400       -0.14700        0.56600
C          2.93500       -1.46700        0.49200
C          3.05900        1.09200        0.38600
C          2.43800        2.46000        0.03300
C          2.65300        2.91700       -1.40300
C          4.09000        2.79000       -1.84300
O          4.56400        3.57700       -2.66300
C          4.87100        1.57300       -1.40700
C          4.55900        1.14700        0.02200
H          1.54800       -1.32300       -1.78100
H          3.02700       -0.44500       -2.09600
H          1.46700        0.40400       -2.01800
H          0.28900       -1.08000        0.37700
H          0.22900        0.66200        0.14500
H          0.88000       -0.00700        1.65100
H          2.37000       -2.36600        0.21700
H          3.00100       -1.44500        1.58500
H          3.94300       -1.60000        0.08900
H          3.04500        1.05100        1.48700
H          2.90900        3.21000        0.68500
H          1.37300        2.49700        0.28100
H          2.36400        3.97000       -1.48200
H          2.02600        2.36400       -2.10400
H          5.93800        1.81700       -1.47200
H          4.68600        0.76600       -2.11700
H          5.02700        1.88700        0.68800
H          5.06800        0.20700        0.24700
