27
98-51-1.pdb
C          2.55100       -0.03000       -0.01000
C          1.05700       -0.00800        0.00800
C          0.36100        1.20100        0.01000
C         -1.03500        1.21400        0.00700
C         -1.79200        0.02800        0.00300
C         -1.07700       -1.18300        0.01300
C          0.32200       -1.19900        0.01400
C         -3.33100        0.03800       -0.04200
C         -3.88800        1.47800       -0.06300
C         -3.82800       -0.69800       -1.30800
C         -3.94100       -0.67300        1.18600
H          2.96700        0.98300        0.00600
H          2.91000       -0.52500       -0.91700
H          2.93100       -0.56200        0.87000
H          0.89800        2.14500       -0.00400
H         -1.50500        2.19300       -0.00500
H         -1.60300       -2.13600        0.00700
H          0.84300       -2.15700        0.00700
H         -3.55500        2.02400       -0.95400
H         -3.56200        2.03800        0.82200
H         -4.98300        1.49100       -0.06400
H         -3.47900       -0.20600       -2.22200
H         -4.92300       -0.72800       -1.34000
H         -3.48100       -1.73700       -1.33900
H         -3.64700       -0.18300        2.12200
H         -3.64300       -1.72400        1.24800
H         -5.03800       -0.65500        1.13800
