29
98-55-5.pdb
C          2.62500        0.00600       -0.18800
C          1.12700        0.02600       -0.25300
C          0.43300        1.17900       -0.26600
C         -1.06300        1.23400       -0.18400
C         -1.68700       -0.03300        0.43300
C         -1.08200       -1.26700       -0.27000
C          0.44900       -1.32300       -0.24600
C         -1.68700       -0.09000        1.99800
C         -0.32100       -0.03700        2.69200
C         -2.56400        1.02800        2.58300
O         -2.30700       -1.33300        2.37200
H          3.05100        1.01500       -0.19300
H          3.04100       -0.54400       -1.04000
H          2.94900       -0.48200        0.73700
H          0.95300        2.13300       -0.29100
H         -1.44900        1.37000       -1.20300
H         -1.36300        2.12700        0.37200
H         -2.75000       -0.03500        0.14200
H         -1.39900       -1.24100       -1.32200
H         -1.49400       -2.19900        0.13300
H          0.78800       -1.89900       -1.11700
H          0.77500       -1.88900        0.63300
H         -0.44300       -0.05500        3.78200
H          0.23700        0.87000        2.44800
H          0.28700       -0.91600        2.46800
H         -2.68300        0.90100        3.66700
H         -3.57400        0.99600        2.16200
H         -2.14100        2.02300        2.41200
H         -2.27700       -1.40500        3.34200
