17
98-78-2.pdb
O          2.25000       -1.01100       -0.86400
C          2.10400        0.10700       -0.12100
O          1.18800        0.25400        0.67000
C          3.20900        1.11700       -0.33900
C          4.33500        0.90500        0.67100
C          4.16500        1.95200        1.76300
C          3.33000        3.00900        1.10500
O          3.16900        4.13100        1.57100
C          2.71700        2.55600       -0.19000
H          3.03200       -1.02300       -1.44800
H          3.57800        0.98600       -1.36400
H          5.30300        1.04500        0.17600
H          4.33900       -0.10200        1.10300
H          5.13200        2.36100        2.06900
H          3.62800        1.55500        2.62800
H          3.10900        3.18500       -0.99500
H          1.62900        2.64700       -0.14100
