36
98266-33-2.pdb
C          7.40100        2.47100        1.09500
C          8.49300        1.73700        1.88700
C          9.70400        1.38500        1.01400
C          8.97000        2.68300        3.00400
O          7.97100        0.55400        2.55300
C          7.41700       -0.43900        1.81000
O          7.30000       -0.42400        0.59500
N          6.99100       -1.45100        2.60800
C          6.37400       -2.70000        2.09100
C          4.89100       -2.44400        1.76600
C          4.19000       -3.53900        0.99900
C          3.46300       -4.53200        1.65800
C          2.80600       -5.51500        0.92600
C          2.89300       -5.46900       -0.45500
N          3.58100       -4.52700       -1.13700
C          4.22300       -3.59400       -0.39200
C          6.57600       -3.87900        3.09300
O          5.69300       -3.99900        3.99400
O          7.65700       -4.52200        2.95000
H          7.77800        3.41000        0.67500
H          6.54300        2.69700        1.73900
H          7.01700        1.87800        0.26100
H         10.14100        2.28000        0.56000
H          9.44600        0.69500        0.20600
H         10.47800        0.88800        1.61100
H          9.38200        3.61300        2.59100
H          9.74300        2.21100        3.62100
H          8.14700        2.94400        3.67800
H          7.19500       -1.40800        3.59900
H          6.90000       -2.95100        1.16000
H          4.32800       -2.22800        2.68400
H          4.80000       -1.52300        1.17300
H          3.42600       -4.54900        2.74700
H          2.24800       -6.29800        1.42600
H          2.40000       -6.21700       -1.06800
H          4.77900       -2.85600       -0.96600
