21
98488-10-9.pdb
C          1.29600       -0.04800        0.04900
C          2.75700       -0.11500       -0.22500
C          3.49900       -1.23400       -0.31200
C          4.84400       -0.75700       -0.68700
N          5.88800       -1.44200       -1.00000
C          6.98500       -0.70100       -1.40400
C          7.02900        0.64400       -1.44400
C          5.83100        1.42900       -1.06200
O          5.82600        2.65200       -1.11700
N          4.79500        0.61900       -0.67800
N          3.48400        1.04100       -0.48800
C          8.16200       -1.50000       -1.89000
H          0.85700       -1.04800        0.13200
H          0.78600        0.46800       -0.77200
H          1.09600        0.49400        0.97700
H          3.22100       -2.26300       -0.19200
H          7.88800        1.20300       -1.78800
H          3.38400        1.78000        0.20800
H          7.97000       -2.57700       -1.81900
H          9.05700       -1.27900       -1.30000
H          8.36500       -1.27400       -2.94100
