16
99-06-9.pdb
O          1.10100       -0.19900       -0.18100
C          2.42200       -0.04000        0.04800
O          3.03900        0.96200       -0.27000
C          3.04300       -1.18300        0.76100
C          2.63700       -2.50600        0.53300
C          3.25500       -3.55200        1.22300
C          4.28700       -3.28400        2.12400
C          4.69900       -1.96900        2.32400
O          5.71300       -1.66900        3.18400
C          4.08900       -0.91800        1.65000
H          0.69100       -0.94800        0.28900
H          1.86800       -2.74100       -0.19800
H          2.94200       -4.57900        1.04900
H          4.76200       -4.10700        2.64900
H          6.08200       -2.49200        3.54200
H          4.43100        0.10200        1.81400
