17
99-05-8.pdb
N          2.35000       -0.01600       -0.18100
C          0.96100       -0.02900       -0.01200
C          0.23700        1.16600       -0.06500
C         -1.15800        1.16300       -0.01400
C         -1.84700       -0.04700        0.03300
C         -1.13900       -1.25400        0.01000
C          0.26300       -1.24100       -0.01700
C         -1.91900       -2.51800        0.05000
O         -1.33300       -3.55000       -0.59400
O         -3.00700       -2.60400        0.58900
H          2.79100        0.84800        0.12000
H          2.82700       -0.83100        0.19200
H          0.75800        2.11900       -0.13000
H         -1.70600        2.10100       -0.01900
H         -2.93400       -0.05000        0.07700
H          0.82700       -2.16900       -0.00800
H         -0.56900       -3.31100       -1.14800
