27
99-15-0.pdb
C          2.31900        0.76100        1.24500
C          2.10900        0.03600       -0.08600
C          0.60400       -0.02300       -0.37600
C          2.85700        0.69800       -1.26300
C          4.39300        0.74700       -1.13300
N          5.04500       -0.54800       -0.91000
C          5.02100       -1.58500       -1.80600
C          5.78000       -2.81200       -1.37500
O          4.44100       -1.49900       -2.88200
C          5.02500        1.51700       -2.30700
O          4.87300        0.94800       -3.52300
O          5.61700        2.58300       -2.16200
H          1.84200        0.20400        2.06000
H          1.87700        1.76300        1.22300
H          3.37700        0.86000        1.49800
H          2.47000       -0.99400        0.02000
H          0.15800        0.97800       -0.36500
H          0.09100       -0.62300        0.38300
H          0.40200       -0.47300       -1.35300
H          2.48700        1.72600       -1.38900
H          2.58200        0.17400       -2.18600
H          4.64500        1.33800       -0.24500
H          5.51000       -0.68100       -0.02100
H          6.55300       -2.56700       -0.63900
H          6.27400       -3.25200       -2.24600
H          5.08500       -3.53300       -0.94300
H          4.48300        0.03900       -3.47900
