20
99-12-7.pdb
C          2.52000        1.05400        0.00800
C          1.21200        0.31700        0.00100
C         -0.00700        1.01300       -0.00500
C         -1.23100        0.32700       -0.00500
C         -2.53900        1.06400       -0.00700
C         -1.23300       -1.07300       -0.00400
C         -0.02000       -1.77100       -0.00100
C          1.20100       -1.08400        0.00300
N         -0.03300       -3.23900       -0.00100
O         -1.13400       -3.80700       -0.00500
O          1.05900       -3.82600        0.00100
H          2.37200        2.13900       -0.00800
H          3.11200        0.78300       -0.87200
H          3.08600        0.80700        0.91200
H         -0.00300        2.10200       -0.00900
H         -2.39400        2.14800        0.01000
H         -3.12400        0.78800        0.87700
H         -3.10900        0.81100       -0.90700
H         -2.18300       -1.60500       -0.00500
H          2.14600       -1.62600        0.00800
