16
99-11-6.pdb
O          1.21000       -0.39300        0.45000
C          2.45400        0.00100        0.10200
O          2.96800       -0.33500       -0.95300
C          3.12800        0.89900        1.07700
C          2.85800        0.84300        2.39200
C          3.56800        1.75000        3.32700
O          3.30400        1.74600        4.52300
N          4.51500        2.57800        2.77900
C          4.80900        2.60100        1.45000
C          4.15900        1.80600        0.59600
O          5.78900        3.45600        1.04000
H          0.81500        0.06100        1.21500
H          2.15800        0.16100        2.85700
H          4.98500        3.18000        3.43900
H          4.40300        1.81000       -0.46300
H          6.16100        3.88400        1.82600
