17
99-10-5.pdb
O          3.06500        0.92900       -0.59400
C          2.36600       -0.11600       -0.10500
O          1.17400       -0.27700       -0.30700
C          3.19000       -1.09200        0.64500
C          2.82700       -2.44500        0.59900
C          3.59900       -3.38000        1.28300
O          3.29700       -4.71000        1.25500
C          4.71700       -2.99100        2.01400
C          5.05300       -1.64200        2.06900
O          6.13800       -1.20500        2.76700
C          4.29300       -0.68600        1.40500
H          4.03500        0.86000       -0.51100
H          1.95100       -2.74700        0.03200
H          2.50900       -4.84700        0.70200
H          5.30100       -3.74300        2.53400
H          6.58500       -1.97200        3.16600
H          4.56100        0.36100        1.51100
