19
99-34-3.pdb
O          1.63900       -0.49300        0.95700
C          2.32900        0.09400       -0.03900
O          2.34600       -0.32700       -1.18200
C          3.11500        1.28400        0.37300
C          2.68100        2.14300        1.39000
C          3.46600        3.25600        1.73600
C          4.66400        3.53300        1.06400
C          5.07300        2.67700        0.03200
C          4.30300        1.55900       -0.31900
N          6.33300        2.94500       -0.67600
O          7.00100        3.91800       -0.30400
O          6.65200        2.17600       -1.59200
N          3.02700        4.13200        2.83200
O          1.99600        3.81000        3.43800
O          3.72200        5.12200        3.08900
H          1.81800       -0.19300        1.86600
H          1.73000        1.96800        1.89000
H          5.26600        4.39900        1.33700
H          4.61500        0.89600       -1.12800
