20
99-31-0.pdb
N          2.32200        0.01200       -0.17200
C          0.93600       -0.00000        0.00400
C          0.21400        1.19500       -0.04100
C         -1.18800        1.19700        0.00700
C         -1.87800       -0.01800        0.02000
C         -1.16300       -1.22300        0.00400
C          0.23900       -1.21100       -0.00600
C         -1.94400       -2.48300        0.04000
O         -1.35900       -3.52800       -0.57800
O         -3.04100       -2.54400        0.56800
C         -1.88200        2.50800       -0.01800
O         -3.07600        2.52300        0.60800
O         -1.38700        3.50000       -0.52700
H          2.77600        0.88000        0.10200
H          2.81500       -0.80100        0.18400
H          0.74400        2.14600       -0.10600
H         -2.96500       -0.04900        0.00200
H          0.80300       -2.13900       -0.00000
H         -0.57800       -3.31900       -1.12100
H         -3.30700        1.72800        1.12400
