27
99-48-9.pdb
C          3.26200        0.18100       -1.37200
C          2.52300       -0.11300       -0.09900
C          1.32700       -0.73200       -0.11800
C          3.15900        0.30900        1.22600
C          4.53000       -0.34500        1.48700
C          5.72900        0.53800        1.34300
C          5.68100        1.87300        1.23900
C          6.93700        2.69400        1.10600
C          4.38800        2.63600        1.23800
O          4.45500        3.61200        2.28000
C          3.09800        1.82800        1.44900
H          2.68000       -0.11600       -2.25400
H          4.20700       -0.36900       -1.41000
H          3.46900        1.24900       -1.46300
H          0.85900       -1.03900       -1.04900
H          0.77800       -0.94600        0.79600
H          2.50500       -0.11100        2.00400
H          4.66300       -1.22300        0.84300
H          4.54300       -0.72900        2.51500
H          6.69200        0.03000        1.34500
H          7.83500        2.06900        1.05700
H          7.05300        3.36400        1.96400
H          6.90400        3.29900        0.19500
H          4.31100        3.18700        0.29300
H          4.64400        3.12500        3.10100
H          2.32000        2.27400        0.80900
H          2.72800        2.00500        2.46700
