17
99-50-3.pdb
O          3.19500       -1.15100       -0.30100
C          2.45400       -0.10000        0.10800
O          1.26900       -0.18300        0.38200
C          3.22700        1.15600        0.26000
C          2.84400        2.05100        1.27400
C          3.54200        3.24800        1.46500
C          4.61600        3.54100        0.63300
O          5.34600        4.68800        0.77000
C          4.98100        2.66100       -0.38400
O          6.03400        2.96000       -1.19900
C          4.29000        1.47500       -0.59100
H          4.15800       -0.99600       -0.33100
H          1.99800        1.81200        1.91700
H          3.23200        3.92600        2.25400
H          4.96700        5.20800        1.50000
H          6.35700        3.82800       -0.88100
H          4.57500        0.83800       -1.42200
