18
99-56-9.pdb
N         -1.82800        1.30700        0.10200
C         -0.57600        0.66400       -0.01100
C          0.60100        1.41400        0.08700
C          1.84600        0.78400        0.05400
C          1.90900       -0.61000       -0.04600
C          0.73800       -1.37800       -0.09400
C         -0.50600       -0.74700       -0.00000
N         -1.69000       -1.51100       -0.11300
N          3.21500       -1.27900       -0.07800
O          4.22800       -0.56700       -0.01900
O          3.23000       -2.51600       -0.15300
H         -1.80300        2.27700       -0.19600
H         -2.54000        0.78800       -0.40800
H          0.55500        2.49700        0.16800
H          2.74900        1.39100        0.10400
H          0.78600       -2.46100       -0.17400
H         -1.57300       -2.47500        0.18600
H         -2.44800       -1.06200        0.39600
