20
99-51-4.pdb
C          1.84900        1.50100       -0.01000
C          0.57500        0.69800        0.00600
C         -0.66000        1.37000        0.02000
C         -1.86200        0.66000        0.01000
C         -1.83300       -0.73700       -0.01900
C         -0.61200       -1.42300       -0.01700
C          0.59900       -0.71300        0.00100
C          1.89700       -1.47500        0.01900
N         -3.08900       -1.49400       -0.05900
O         -4.15000       -0.85100       -0.06900
O         -3.01900       -2.73100       -0.08400
H          1.64700        2.57700       -0.02200
H          2.43100        1.26800       -0.90800
H          2.44700        1.28500        0.88000
H         -0.69200        2.45800        0.03500
H         -2.80200        1.20800        0.02100
H         -0.59400       -2.51200       -0.03100
H          1.72600       -2.55700        0.02400
H          2.46700       -1.23000        0.92100
H          2.49100       -1.23900       -0.86800
