17
99-57-0.pdb
N          1.70500       -1.45800        0.18000
C          0.50800       -0.74800       -0.00800
C         -0.71500       -1.41800        0.02300
C         -1.91000       -0.68500       -0.01600
C         -1.89400        0.71800       -0.04700
C         -0.67200        1.39200       -0.03600
C          0.51300        0.65700       -0.00300
O          1.72700        1.29300        0.00600
N         -3.19500       -1.39400       -0.01300
O         -3.17300       -2.63300        0.00500
O         -4.22900       -0.71100       -0.03500
H          1.72200       -2.38400       -0.23400
H          2.50900       -0.88600       -0.07900
H         -0.72900       -2.50400        0.08500
H         -2.81700        1.29300       -0.06900
H         -0.66100        2.47800       -0.04700
H          1.57800        2.25100        0.05900
