23
99-77-4.pdb
C          1.44600        0.23100        0.80100
C          2.73400       -0.54300        0.58900
O          3.68800       -0.03600        1.53000
C          4.40200        1.03300        1.10200
O          4.54400        1.41100       -0.04600
C          4.96100        1.74000        2.27600
C          4.30700        1.72600        3.51700
C          4.84200        2.42900        4.59900
C          6.03600        3.14600        4.43100
C          6.67700        3.18400        3.18500
C          6.13300        2.48600        2.10400
N          6.62300        3.85600        5.57300
O          6.03400        3.78600        6.66300
O          7.67800        4.47600        5.38500
H          0.65200       -0.13400        0.15000
H          1.60200        1.29700        0.61000
H          1.12300        0.14600        1.84400
H          3.08900       -0.46700       -0.44600
H          2.58100       -1.60500        0.80800
H          3.37200        1.18300        3.64700
H          4.32200        2.40900        5.55500
H          7.59600        3.74900        3.03800
H          6.62100        2.52200        1.13200
