21
99395-88-7.pdb
O         -1.90000       -0.11900        0.11400
C         -0.68600       -0.05300        0.04400
N          0.14400       -1.11500       -0.14800
C          1.50500       -0.73800        0.04100
C          1.42800        0.78000       -0.02900
O          0.04000        1.09400        0.17200
C          2.41500       -1.38700       -0.96900
C          2.22700       -1.18900       -2.34800
C          3.08100       -1.78300       -3.27800
C          4.12800       -2.59200       -2.84300
C          4.31700       -2.81200       -1.48100
C          3.46600       -2.21400       -0.54800
H         -0.21600       -2.05700       -0.10600
H          1.77400       -1.04400        1.06000
H          1.73600        1.20500       -0.99000
H          2.02300        1.25300        0.75900
H          1.40600       -0.57200       -2.71000
H          2.92600       -1.61700       -4.34100
H          4.79200       -3.05600       -3.56800
H          5.12900       -3.45200       -1.14400
H          3.63300       -2.40500        0.51000
