21
99584-85-7.pdb
C          2.49400        0.08200       -0.01200
C          0.99300       -0.03100       -0.00500
C          0.24900        1.17000       -0.00000
C         -1.15700        1.18000        0.00200
C         -1.84000       -0.03700       -0.00100
C         -1.12800       -1.24100       -0.00500
C          0.28200       -1.25000       -0.00600
N          0.94900       -2.57200       -0.00800
O          2.18400       -2.62200       -0.00900
O          0.22100       -3.57700       -0.00800
C         -1.84400        2.50600        0.00800
N         -3.21000        2.54000        0.00900
O         -1.20600        3.55300        0.01300
H          2.81900        1.12900       -0.00500
H          2.90900       -0.37100       -0.91700
H          2.92000       -0.38400        0.88200
H          0.77700        2.12600        0.00200
H         -2.92300       -0.08800       -0.00100
H         -1.69500       -2.17200       -0.00700
H         -3.82100        1.74000        0.00700
H         -3.63800        3.45800        0.01500
