32
99724-19-3.pdb
C          3.05700        1.31900        0.31000
C          2.55900       -0.12300        0.10900
C          2.91900       -1.03000        1.29400
C          1.02600       -0.06300       -0.01600
O          3.07800       -0.68900       -1.12500
C          4.41600       -0.78300       -1.29200
O          5.29300       -0.55600       -0.46100
N          4.70900       -1.05600       -2.60000
C          6.04900       -0.86000       -3.13200
C          7.01000       -1.98900       -2.77200
C          8.36000       -1.32100       -2.67200
N          8.03800       -0.00900       -2.04200
C          6.74900        0.44400       -2.65600
H          2.63700        1.76100        1.22100
H          2.77400        1.94500       -0.54000
H          4.14500        1.37900        0.39000
H          2.48000       -0.66400        2.22800
H          3.99800       -1.09900        1.44500
H          2.56500       -2.05100        1.11200
H          0.56900        0.36300        0.88400
H          0.59900       -1.06000       -0.18000
H          0.72400        0.55200       -0.87200
H          3.94300       -1.37100       -3.17800
H          5.92800       -0.80900       -4.22300
H          7.00500       -2.78800       -3.52400
H          6.74900       -2.45200       -1.81100
H          8.79800       -1.11100       -3.65300
H          9.07900       -1.85000       -2.03500
H          8.78800        0.68100       -2.13500
H          7.87000       -0.14700       -1.03000
H          7.01300        1.08400       -3.50800
H          6.22100        1.04700       -1.92000
