8
   
C          1.15000        0.05000        0.00000
C          2.65000        0.00000       -0.06000
O          3.29000       -0.68000       -0.84000
O          3.23000        0.80000        0.86000
H          0.74000       -0.61000       -0.77000
H          0.80000        1.07000       -0.20000
H          0.80000       -0.29000        0.98000
H          2.59000        1.29000        1.42000
