15
   
C          2.76800       -1.51400        0.31000
C          2.63300       -0.01900        0.16900
O          1.83300        0.61400        0.86200
C          3.42200        0.66500       -0.91700
C          4.91800        0.59100       -0.76800
O          5.46800       -0.00400        0.15800
C          5.74000        1.27600       -1.82800
H          2.07800       -1.87100        1.08000
H          3.78200       -1.78600        0.60800
H          2.51300       -1.99500       -0.63800
H          3.14000        1.72400       -0.92400
H          3.13400        0.22600       -1.87700
H          5.09200        1.75700       -2.56600
H          6.36000        0.53500       -2.33800
H          6.36700        2.04100       -1.36100
