20
   
C          1.00000       -0.08000        0.07000
C          0.50000       -0.35000       -1.35000
C          0.94000       -1.71000       -1.90000
C          0.43000       -1.97000       -3.29000
O         -0.27000       -1.20000       -3.94000
O          0.84000       -3.16000       -3.77000
C          2.52000       -0.03000        0.18000
C          2.99000        0.27000        1.58000
O          2.27000        0.44000        2.55000
O          4.34000        0.29000        1.68000
H          0.60000       -0.85000        0.75000
H          0.58000        0.87000        0.41000
H          0.85000        0.45000       -2.02000
H         -0.59000       -0.30000       -1.35000
H          0.58000       -2.51000       -1.24000
H          2.04000       -1.76000       -1.95000
H          1.38000       -3.67000       -3.15000
H          2.91000        0.76000       -0.48000
H          2.96000       -0.99000       -0.11000
H          4.80000        0.14000        0.83000
