13
   
C          0.93000       -0.05000       -0.10000
C          2.45000       -0.08000       -0.08000
C          2.98000       -1.50000       -0.36000
O          3.67000       -1.79000       -1.33000
O          2.66000       -2.40000        0.59000
N          2.95000        0.87000       -1.10000
H          0.51000       -0.68000        0.70000
H          0.53000       -0.43000       -1.04000
H          0.55000        0.96000        0.06000
H          2.83000        0.24000        0.90000
H          2.14000       -2.04000        1.34000
H          2.66000        0.54000       -2.02000
H          3.97000        0.78000       -1.13000
