17
   
C          1.19000        0.03000       -0.04000
C          0.66000        0.97000       -1.12000
C          0.89000        0.42000       -2.54000
O         -0.01000        0.00000       -3.26000
O          2.17000        0.46000       -2.97000
N         -0.81000        1.13000       -0.90000
C          2.70000       -0.02000       -0.03000
O          3.40000        0.67000       -0.76000
N          3.24000       -0.90000        0.85000
H          0.81000       -0.99000       -0.18000
H          0.87000        0.38000        0.95000
H          1.12000        1.96000       -1.06000
H          2.83000        0.78000       -2.30000
H         -1.25000        0.24000       -1.12000
H         -1.16000        1.74000       -1.65000
H          2.69000       -1.55000        1.40000
H          4.25000       -1.00000        0.88000
