14
   
C         -2.07000       -0.74000        0.00000
C         -0.88000       -1.50000        0.00000
C          0.30000       -0.74000        0.00000
N          1.58000       -1.14000        0.00000
N          2.24000        0.02000        0.00000
N          1.55000        1.17000        0.00000
C          0.28000        0.73000        0.00000
C         -0.92000        1.47000        0.00000
C         -2.08000        0.68000        0.00000
H         -3.02000       -1.27000        0.00000
H         -0.87000       -2.58000        0.00000
H          3.26000        0.03000        0.00000
H         -0.93000        2.55000        0.00000
H         -3.05000        1.19000        0.00000
