16
   
N          1.44600        0.56700        0.66500
C          2.47400       -0.08500        0.04200
O          2.83800       -1.18900        0.42600
C          3.09100        0.57700       -1.13800
C          3.03300        1.96300       -1.33200
C          3.62900        2.53700       -2.45800
C          4.28800        1.73300       -3.38800
C          4.36200        0.35400       -3.19200
C          3.76900       -0.22300       -2.06700
H          0.96900        0.05000        1.39300
H          0.95500        1.34000        0.24100
H          2.55300        2.61200       -0.60600
H          3.58800        3.61300       -2.60600
H          4.75400        2.18200       -4.26200
H          4.88400       -0.27200       -3.91100
H          3.83400       -1.29900       -1.91700
