19
   
C         -1.41000       -0.20000        0.05000
C         -0.88000        1.08000        0.03000
C          0.51000        1.27000       -0.03000
C          1.39000        0.18000       -0.07000
C          0.82000       -1.11000       -0.05000
C         -0.56000       -1.30000        0.01000
N          2.80000        0.33000       -0.16000
C          3.62000        1.38000        0.30000
S          3.25000        2.71000        1.24000
S          5.29000        1.07000       -0.18000
C          4.87000       -0.43000       -0.95000
S          5.86000       -1.39000       -1.85000
N          3.55000       -0.70000       -0.74000
H         -2.49000       -0.35000        0.10000
H         -1.54000        1.94000        0.05000
H          0.86000        2.29000       -0.11000
H          1.45000       -2.00000       -0.04000
H         -0.97000       -2.31000        0.03000
H          3.09000       -1.38000       -1.35000
