46
   
C          1.22100        1.23200       -0.04700
C         -0.25000        1.47800        0.24900
C         -1.10900        0.33300       -0.27600
C         -0.69900       -1.04200        0.32500
C          0.81100       -1.29900       -0.11800
C          1.69900       -0.14300        0.42200
N          1.40800       -2.64400        0.17400
C          0.48600       -3.79200       -0.02700
C         -0.02700       -3.94800       -1.45200
O          0.72000       -4.00100       -2.42600
O         -1.36900       -4.03400       -1.56200
C          2.70100       -2.81400       -0.55900
C          3.30700       -4.21300       -0.47100
O          3.98800       -4.61100        0.46400
O          2.98700       -5.01100       -1.52000
N         -1.08100       -1.05100        1.76900
C         -2.55700       -1.25500        1.97300
C         -3.11700       -2.62500        1.54600
O         -2.63800       -3.37100        0.70000
O         -4.27600       -2.93600        2.17200
C         -0.30900       -1.94000        2.67900
C         -0.40000       -1.40100        4.11100
O         -0.36200       -2.08400        5.12000
O         -0.52900       -0.04800        4.13300
H          1.82700        2.01300        0.42700
H          1.38900        1.31700       -1.12800
H         -0.56400        2.41600       -0.22200
H         -0.39800        1.60300        1.32700
H         -1.01300        0.28500       -1.36900
H         -2.16400        0.55900       -0.09300
H         -1.29600       -1.77300       -0.21800
H          0.80400       -1.20400       -1.21500
H          2.73400       -0.24100        0.08200
H          1.73000       -0.16000        1.51700
H         -0.34500       -3.71500        0.66500
H          0.95900       -4.73700        0.26300
H         -1.87200       -3.96500       -0.70900
H          3.46400       -2.15800       -0.12700
H          2.62000       -2.52900       -1.61400
H          2.35000       -4.60600       -2.15900
H         -3.13000       -0.48900        1.44300
H         -2.78300       -1.11400        3.03600
H         -4.58900       -2.28900        2.83400
H          0.76100       -1.93500        2.46800
H         -0.67700       -2.96900        2.67200
H         -0.56900        0.25600        3.19800
