24
   
O          3.77000       -3.67500       -6.32800
C          3.70700       -2.74500       -5.23700
C          4.25900       -3.45400       -3.99500
H          3.66200       -4.36200       -3.84100
O          5.59400       -3.90700       -4.28900
C          4.22400       -2.63600       -2.69100
H          4.64500       -3.26300       -1.89600
O          2.84800       -2.39000       -2.34200
C          4.96500       -1.28200       -2.65300
H          4.80800       -0.87100       -1.64600
O          4.28100       -0.37400       -3.53800
C          6.48000       -1.35200       -2.92600
H          6.94800       -2.11900       -2.29900
O          6.80500       -1.60700       -4.28800
C          7.15600       -0.03700       -2.58500
O          6.55900        0.96800       -2.20300
H          3.39400       -3.21400       -7.10000
H          2.66800       -2.43400       -5.09900
H          4.32300       -1.89000       -5.52500
H          5.48000       -4.41000       -5.12700
H          2.62300       -1.52900       -2.75100
H          4.73700        0.48900       -3.44000
H          6.57800       -2.54900       -4.44800
H          8.25400       -0.03000       -2.69800
