20
   
C          1.10000        0.10000       -0.02000
C          0.56000        0.52000       -1.40000
N         -0.91000        0.54000       -1.40000
C         -1.42000        0.91000       -2.73000
C         -2.96000        0.94000       -2.76000
N         -3.52000        1.84000       -1.75000
N          2.56000        0.09000        0.01000
H          0.72000       -0.90000        0.25000
H          0.74000        0.80000        0.75000
H          0.92000       -0.20000       -2.15000
H          0.95000        1.51000       -1.66000
H         -1.22000        1.27000       -0.75000
H         -1.07000        0.18000       -3.48000
H         -1.03000        1.89000       -3.02000
H         -3.35000       -0.07000       -2.59000
H         -3.29000        1.26000       -3.75000
H         -3.30000        1.46000       -0.83000
H         -4.53000        1.82000       -1.82000
H          2.90000       -0.60000       -0.65000
H          2.87000       -0.23000        0.93000
