25
   
C          1.15800        0.25800        0.18700
O          2.58600        0.26900        0.13700
C          3.09300        0.29500       -1.12000
O          2.44500        0.30900       -2.15400
C          4.58100        0.30000       -1.08900
C          5.26000        0.29800       -2.31500
C          6.65000        0.30200       -2.33100
O          7.34500        0.29900       -3.50300
C          7.37900        0.31100       -1.14800
C          6.71200        0.31500        0.08300
C          5.30900        0.30900        0.11100
C          7.53400        0.32500        1.32400
O          8.75500        0.32500        1.32500
O          6.74000        0.33600        2.42300
C          7.45900        0.34800        3.65700
H          0.85700        0.22000        1.23800
H          0.76300       -0.62900       -0.31800
H          0.75300        1.17200       -0.25800
H          4.69500        0.29100       -3.24500
H          6.72100        0.29400       -4.24900
H          8.46600        0.31400       -1.18900
H          4.78500        0.31300        1.06400
H          6.73100        0.35500        4.47300
H          8.07300        1.25000        3.73400
H          8.07600       -0.55100        3.75100
