51
   
C         -0.73000        1.24000       -0.18000
C          0.66000        1.30000       -0.02000
C          1.43000        0.13000        0.08000
C          0.77000       -1.10000       -0.02000
C         -0.62000       -1.17000       -0.18000
C         -1.37000        0.01000       -0.28000
C         -2.84000       -0.11000       -0.52000
O         -3.43000       -1.15000       -0.24000
N         -3.47000        0.98000       -1.08000
C         -4.88000        0.96000       -1.44000
C         -5.77000        0.92000       -0.18000
C         -7.27000        0.93000       -0.47000
C         -7.65000       -0.25000       -1.32000
O         -7.52000       -0.23000       -2.54000
O         -8.05000       -1.33000       -0.62000
C         -5.15000        2.22000       -2.26000
O         -4.79000        3.34000       -1.91000
O         -5.78000        2.01000       -3.44000
N          2.83000        0.14000        0.14000
C          3.53000        1.24000        0.80000
C          4.43000        2.00000       -0.15000
C          4.11000        2.16000       -1.50000
N          4.86000        2.88000       -2.37000
C          5.96000        3.47000       -1.85000
C          6.28000        3.33000       -0.51000
N          5.53000        2.60000        0.37000
C          7.50000        4.04000       -0.04000
O          7.84000        3.93000        1.14000
N          8.23000        4.81000       -0.93000
C          7.85000        4.85000       -2.16000
N          6.78000        4.21000       -2.68000
N          8.52000        5.60000       -3.06000
H         -1.28000        2.18000       -0.22000
H          1.13000        2.28000        0.00000
H          1.32000       -2.03000        0.03000
H         -1.11000       -2.14000       -0.24000
H         -2.92000        1.76000       -1.42000
H         -5.03000        0.07000       -2.06000
H         -5.53000        1.78000        0.46000
H         -5.54000        0.03000        0.40000
H         -7.58000        1.84000       -0.98000
H         -7.84000        0.91000        0.47000
H         -8.03000       -1.22000        0.35000
H         -6.06000        1.08000       -3.60000
H          3.22000       -0.77000        0.39000
H          4.16000        0.80000        1.59000
H          2.86000        1.94000        1.31000
H          3.23000        1.69000       -1.93000
H          6.46000        4.34000       -3.63000
H          9.41000        5.93000       -2.69000
H          8.63000        5.20000       -3.99000
