12
   
C          1.03000       -0.01000       -0.05000
C          0.36000       -0.57000        0.96000
C         -1.11000       -0.54000        0.91000
O         -1.75000       -0.04000        0.00000
O         -1.68000       -1.13000        1.97000
C          2.50000       -0.02000       -0.03000
O          3.17000       -0.52000        0.87000
O          3.03000        0.58000       -1.11000
H          0.52000        0.45000       -0.88000
H          0.86000       -1.04000        1.80000
H         -1.07000       -1.50000        2.63000
H          2.39000        0.94000       -1.75000
