24
   
C          1.31000        0.09000       -0.08000
C          0.57000       -0.65000        1.05000
C         -0.86000       -0.13000        1.26000
C         -1.79000       -0.62000        0.14000
C         -1.68000       -2.13000       -0.06000
C         -0.21000       -2.54000       -0.23000
O          0.56000       -2.09000        0.88000
O         -0.11000       -3.96000       -0.29000
O         -2.23000       -2.79000        1.11000
O         -3.13000       -0.24000        0.47000
O         -0.89000        1.29000        1.33000
O          2.63000       -0.42000       -0.26000
H          1.40000        1.16000        0.15000
H          0.80000       -0.01000       -1.04000
H          1.14000       -0.48000        1.97000
H         -1.24000       -0.50000        2.22000
H         -1.55000       -0.10000       -0.80000
H         -2.29000       -2.46000       -0.90000
H          0.21000       -2.15000       -1.17000
H         -0.85000       -4.31000        0.23000
H         -1.50000       -2.85000        1.77000
H         -3.51000       -1.00000        0.98000
H         -1.83000        1.54000        1.22000
H          3.11000       -0.32000        0.58000
