25
   
C          0.95000       -0.02000       -0.09000
C          0.38000       -0.94000        1.01000
C          0.96000       -0.62000        2.40000
C          0.37000       -1.53000        3.50000
C          0.98000       -1.24000        4.89000
C          0.59000        0.16000        5.37000
O          1.39000        1.02000        5.71000
O         -0.75000        0.35000        5.43000
O          0.54000       -2.24000        5.82000
O         -1.07000       -1.41000        3.61000
O          2.39000       -0.71000        2.37000
O         -1.05000       -0.83000        1.05000
O          0.31000       -0.33000       -1.33000
H          2.03000       -0.12000       -0.20000
H          0.71000        1.03000        0.14000
H          0.61000       -1.98000        0.73000
H          0.70000        0.42000        2.63000
H          0.57000       -2.58000        3.25000
H          2.07000       -1.31000        4.85000
H         -1.24000       -0.36000        4.94000
H         -0.35000       -1.99000        6.14000
H         -1.41000       -1.40000        2.68000
H          2.65000       -1.65000        2.26000
H         -1.31000       -0.27000        0.29000
H          0.63000       -1.20000       -1.61000
