19
   
C          0.92000        0.03000       -0.04000
C          0.33000       -1.38000       -0.13000
C          0.78000       -2.27000        1.01000
O          1.10000       -1.87000        2.12000
O          0.81000       -3.58000        0.68000
C          2.46000        0.06000       -0.07000
C          3.02000       -0.56000       -1.36000
O          2.44000       -0.58000       -2.44000
O          4.28000       -1.04000       -1.21000
N          2.94000        1.45000        0.05000
H          0.57000        0.51000        0.88000
H          0.52000        0.62000       -0.87000
H          0.60000       -1.84000       -1.08000
H         -0.77000       -1.33000       -0.09000
H          0.53000       -3.77000       -0.24000
H          2.85000       -0.51000        0.78000
H          4.62000       -0.96000       -0.30000
H          2.57000        2.00000       -0.73000
H          3.95000        1.50000       -0.05000
