9
   
C          1.00000       -0.06000        0.09000
C          0.58000       -1.38000        0.72000
O          1.38000       -2.18000        1.20000
O         -0.76000       -1.58000        0.74000
O          2.40000        0.11000        0.03000
H          0.58000        0.76000        0.69000
H          0.61000       -0.01000       -0.93000
H         -1.28000       -0.86000        0.33000
H          2.79000       -0.50000        0.69000
