10
   
C          0.88000        0.04000        0.02000
C          0.39000        0.73000        1.29000
O         -0.68000        1.30000        1.40000
O          1.29000        0.60000        2.30000
N          2.36000       -0.13000        0.09000
H          0.62000        0.64000       -0.86000
H          0.41000       -0.95000       -0.04000
H          2.06000        0.10000        1.92000
H          2.78000        0.79000       -0.05000
H          2.65000       -0.67000       -0.73000
