13
   
C          1.16000       -0.02000        0.20000
C          0.49000       -1.27000        0.76000
C          0.88000       -1.46000        2.22000
O          0.06000       -1.55000        3.12000
O          2.22000       -1.54000        2.44000
O         -0.92000       -1.15000        0.60000
O          2.58000       -0.12000        0.33000
H          0.82000        0.87000        0.73000
H          0.91000        0.10000       -0.86000
H          0.81000       -2.17000        0.22000
H          2.73000       -1.31000        1.63000
H         -1.30000       -1.09000        1.51000
H          2.93000        0.78000        0.18000
