14
   
C          1.00000        0.05000        0.03000
C          0.47000        0.98000       -1.06000
C          0.96000        0.59000       -2.46000
O          0.45000       -0.69000       -2.83000
O         -0.97000        0.91000       -1.03000
O          0.56000       -1.29000       -0.20000
H          0.63000        0.35000        1.02000
H          2.10000        0.05000        0.05000
H          0.76000        2.01000       -0.84000
H          2.05000        0.58000       -2.52000
H          0.57000        1.30000       -3.20000
H          0.74000       -1.32000       -2.13000
H         -1.22000        0.27000       -1.73000
H         -0.40000       -1.27000       -0.04000
