20
   
C          1.00800        0.08300        0.02200
C          2.52700        0.07800        0.03100
C          3.08400       -0.83100        1.12700
C          4.61300       -0.82500        1.12000
C          5.18700       -1.72900        2.21000
C          6.69900       -1.72300        2.20300
O          7.40200       -1.08700        1.43500
O          7.21900       -2.52100        3.16500
H          0.63600        0.74000       -0.77000
H          0.61100        0.44500        0.97600
H          0.61200       -0.92200       -0.15700
H          2.88900        1.10200        0.17800
H          2.89000       -0.25600       -0.94800
H          2.71900       -1.85400        0.97900
H          2.71900       -0.49500        2.10500
H          4.97800        0.20000        1.26300
H          4.97800       -1.15500        0.13900
H          4.84800       -2.75800        2.05400
H          4.84800       -1.38400        3.19300
H          6.54500       -2.97100        3.70800
