20
   
C         -0.20000        0.24000       -1.31000
C         -0.37000        0.99000       -0.17000
N         -0.05000        0.14000        0.87000
C          0.24000       -1.07000        0.32000
N          0.15000       -1.05000       -0.99000
C         -0.80000        2.40000        0.05000
C         -2.33000        2.56000        0.13000
C         -2.88000        1.78000        1.33000
O         -2.96000        2.24000        2.46000
O         -3.26000        0.51000        1.05000
N         -2.68000        3.99000        0.27000
H         -0.32000        0.55000       -2.34000
H         -0.05000        0.36000        1.86000
H          0.51000       -1.93000        0.92000
H         -0.42000        3.01000       -0.78000
H         -0.33000        2.79000        0.96000
H         -2.81000        2.19000       -0.79000
H         -3.10000        0.24000        0.12000
H         -2.35000        4.30000        1.19000
H         -3.70000        4.07000        0.34000
