18
   
O          3.25700        0.86300        0.53900
C          2.42900       -0.07600        0.03800
O          1.31500       -0.30800        0.47100
C          3.02900       -0.83200       -1.08100
C          3.69400       -0.17000       -2.12300
C          4.24200       -0.90600       -3.17600
C          4.11400       -2.29600       -3.19700
C          3.42000       -2.94900       -2.16900
C          2.88300       -2.22200       -1.10400
C          3.28100       -4.42000       -2.16200
O          2.91300       -4.91800       -3.36000
O          3.45600       -5.09600       -1.16500
H          4.17500        0.81600        0.21200
H          3.77000        0.91500       -2.13300
H          4.76900       -0.39500       -3.98000
H          4.57400       -2.86300       -4.00500
H          2.35500       -2.73300       -0.29900
H          2.63800       -4.24800       -4.01500
