24
   
C          0.87000        0.04000       -0.13000
C          0.38000        1.33000       -0.78000
C         -1.15000        1.39000       -0.78000
N         -1.62000        2.62000       -1.39000
C          2.40000       -0.04000       -0.09000
C          2.90000       -1.34000        0.56000
C          4.44000       -1.42000        0.56000
O          5.13000       -1.46000        1.57000
O          4.99000       -1.47000       -0.68000
N          2.40000       -1.45000        1.95000
H          0.48000       -0.82000       -0.69000
H          0.46000       -0.02000        0.88000
H          0.75000        1.40000       -1.81000
H          0.78000        2.19000       -0.24000
H         -1.53000        1.33000        0.25000
H         -1.56000        0.53000       -1.33000
H         -1.29000        3.42000       -0.86000
H         -2.64000        2.65000       -1.34000
H          2.80000        0.82000        0.46000
H          2.79000        0.04000       -1.11000
H          2.53000       -2.22000        0.01000
H          4.34000       -1.48000       -1.41000
H          2.81000       -0.67000        2.49000
H          2.83000       -2.27000        2.38000
