15
   
C          1.14000        0.16000       -0.02000
C          0.63000       -0.70000        1.13000
C          0.87000       -0.05000        2.50000
O         -0.06000        0.41000        3.16000
O          2.14000       -0.03000        2.94000
O         -0.78000       -0.87000        0.92000
C          2.63000        0.18000       -0.07000
O          3.35000       -0.42000        0.72000
O          3.13000        0.96000       -1.05000
H          0.76000        1.19000        0.08000
H          0.77000       -0.25000       -0.97000
H          1.08000       -1.70000        1.14000
H          2.81000       -0.40000        2.31000
H         -1.23000       -0.38000        1.64000
H          2.45000        1.41000       -1.60000
