11
   
C          0.99000        0.08000        0.08000
C          0.44000        0.44000        1.44000
O         -0.77000        0.49000        1.63000
O          1.31000        0.69000        2.42000
C          2.47000        0.05000       -0.06000
O          3.25000        0.29000        0.86000
O          2.90000       -0.28000       -1.30000
H          0.60000        0.83000       -0.63000
H          0.60000       -0.91000       -0.17000
H          2.27000        0.63000        2.18000
H          2.19000       -0.44000       -1.95000
