15
   
C          1.01000       -0.15000        0.17000
C          2.49000        0.05000        0.05000
C          3.12000        1.24000        0.04000
C          4.61000        1.25000       -0.15000
O          5.27000        2.29000       -0.20000
C          5.27000       -0.05000       -0.29000
C          4.52000       -1.15000       -0.24000
O          3.16000       -1.16000       -0.08000
O          2.50000        2.47000        0.19000
H          0.44000        0.78000        0.18000
H          0.77000       -0.70000        1.09000
H          0.64000       -0.74000       -0.68000
H          6.35000       -0.07000       -0.42000
H          4.91000       -2.16000       -0.32000
H          1.60000        2.34000        0.51000
