21
   
C          1.13400        0.03900       -0.14000
N          2.59800       -0.06900       -0.02400
C          3.01300        0.53100        1.27300
C          4.52600        0.78700        1.36200
O          4.96600        1.51300        0.21700
C          3.02700       -1.49100       -0.10500
C          2.77700       -2.11700       -1.48700
O          3.29200       -1.26700       -2.50800
H          0.81900        1.08500       -0.06100
H          0.61600       -0.53600        0.63700
H          0.78600       -0.30300       -1.11900
H          2.68000       -0.07700        2.12300
H          2.53100        1.51400        1.36400
H          5.09700       -0.14300        1.42400
H          4.75800        1.38100        2.25100
H          4.45600        1.14100       -0.53000
H          2.55000       -2.10000        0.67300
H          4.10900       -1.53900        0.05700
H          1.71100       -2.27700       -1.67400
H          3.28000       -3.08600       -1.56200
H          3.08400       -0.35900       -2.21300
