26
   
O          2.99500       -1.01300        1.15800
C          2.44400       -0.14900        0.16400
C          2.90400       -0.59600       -1.22900
N          4.35200       -0.41400       -1.36400
C          4.86200       -0.99800       -2.60700
C          6.40200       -1.10700       -2.56600
N          6.85000       -1.89400       -1.40100
C          8.31200       -2.05600       -1.41700
C          8.80300       -2.69000       -0.11100
O          8.08300       -3.88900        0.16800
H          2.79000       -0.61200        2.01900
H          2.76000        0.87900        0.37300
H          1.35300       -0.20200        0.23400
H          2.38400       -0.00600       -1.99100
H          2.64400       -1.65300       -1.36100
H          4.81700       -0.88200       -0.57700
H          4.56500       -0.37600       -3.45900
H          4.45000       -2.00200       -2.76200
H          6.83300       -0.09900       -2.51800
H          6.74400       -1.57800       -3.49600
H          6.42500       -2.82100       -1.46100
H          8.81300       -1.09000       -1.54700
H          8.58700       -2.70400       -2.25800
H          8.67400       -2.00600        0.73400
H          9.86500       -2.94000       -0.18900
H          7.17600       -3.59500        0.37000
