15
   
O          1.58200        0.08900        1.03700
C          2.53500        0.04900        0.26900
N          3.07300       -1.12900       -0.14100
C          4.06100       -1.24600       -1.18600
C          4.98300       -0.04200       -1.20200
C          4.11800        1.20400       -1.24400
N          3.12400        1.18000       -0.19800
H          2.56700       -1.94700        0.17300
H          3.52300       -1.34100       -2.13600
H          4.62300       -2.17000       -1.01800
H          5.66000       -0.07800       -2.06100
H          5.59600       -0.03500       -0.29200
H          3.58800        1.28000       -2.19900
H          4.72300        2.10600       -1.11400
H          2.65500        2.03400        0.07400
