42
   
C          0.86100       -0.03900       -0.00000
C          2.38200       -0.01300       -0.01400
C          2.91300        1.22300       -0.74000
C          4.44200        1.24400       -0.76000
C          4.97000        2.48000       -1.48900
C          6.49900        2.49800       -1.52600
C          7.01800        3.73200       -2.26100
C          8.54200        3.75100       -2.32500
O          8.98800        4.94700       -2.98500
C          9.04500        4.88800       -4.33800
O          8.76400        3.92200       -5.03000
C          9.48200        6.19100       -4.90600
C          9.51100        6.31700       -6.30800
C          9.90700        7.52000       -6.88100
C         10.27200        8.59100       -6.07400
C         10.24500        8.46700       -4.69100
C          9.85300        7.27500       -4.09500
O         10.60600        9.52200       -3.90400
O         10.66200        9.77900       -6.62800
O          9.95100        7.69900       -8.23500
H          0.50300       -0.93000        0.52500
H          0.46000       -0.06000       -1.01900
H          0.45800        0.84100        0.51000
H          2.75200       -0.92100       -0.50300
H          2.75100       -0.02600        1.01800
H          2.53900        2.12800       -0.24700
H          2.53200        1.23500       -1.76900
H          4.81500        0.33800       -1.25300
H          4.82400        1.23300        0.26900
H          4.60400        3.38500       -0.98900
H          4.57800        2.49600       -2.51300
H          6.86400        1.59200       -2.02500
H          6.89300        2.48600       -0.50300
H          6.66600        4.64500       -1.76600
H          6.60500        3.76400       -3.27600
H          8.94200        2.85700       -2.81900
H          8.96100        3.77300       -1.31300
H          9.22200        5.47300       -6.92900
H          9.84100        7.20600       -3.01100
H         10.83700       10.23500       -4.53400
H         10.60000        9.62800       -7.59400
H          9.67100        6.87100       -8.66500
