22
   
O          2.66000        0.48000        1.00000
C          2.21000       -0.14000       -0.12000
O          1.12000       -0.68000       -0.19000
C          3.19000       -0.03000       -1.29000
N          4.64000       -0.06000       -0.85000
C          4.90000       -1.42000       -0.22000
C          6.34000       -1.57000        0.26000
O          6.83000       -0.44000        0.82000
O          6.98000       -2.61000        0.17000
C          5.46000       -0.03000       -2.13000
C          5.21000        1.23000       -2.96000
O          5.49000        2.37000       -2.29000
O          4.79000        1.22000       -4.11000
H          3.53000        0.87000        0.83000
H          2.96000        0.93000       -1.77000
H          2.97000       -0.85000       -1.99000
H          4.67000       -2.23000       -0.93000
H          4.27000       -1.55000        0.67000
H          6.16000        0.27000        0.82000
H          5.23000       -0.90000       -2.77000
H          6.53000       -0.06000       -1.91000
H          5.82000        2.20000       -1.39000
