18
   
C          0.94700        0.00600        0.19600
C          2.44400       -0.01400        0.06200
C          3.15900        1.19300        0.07900
C          4.54900        1.20200       -0.06500
C          5.24600        0.00900       -0.24100
C          4.55300       -1.20000       -0.27000
C          3.15900       -1.21200       -0.11400
C          2.45900       -2.51600       -0.15100
O          2.93100       -3.36200        0.79100
O          1.54900       -2.78100       -0.91400
H          0.59100        0.98800        0.52600
H          0.61500       -0.72200        0.94300
H          0.47800       -0.21700       -0.76700
H          2.63600        2.14000        0.20100
H          5.08700        2.14800       -0.05200
H          6.32500        0.02400       -0.37100
H          5.09900       -2.12600       -0.44000
H          3.57800       -2.95600        1.39900
