27
   
C          0.90000       -0.03000        0.32000
C          2.41000        0.05000       -0.01000
C          3.20000       -0.52000        1.18000
C          2.63000       -0.88000       -1.23000
C          2.87000        1.49000       -0.28000
C          2.26000        2.59000        0.35000
C          2.64000        3.91000        0.07000
C          3.66000        4.16000       -0.84000
C          4.34000        3.09000       -1.43000
C          3.95000        1.78000       -1.15000
C          4.00000        5.58000       -1.13000
O          3.86000        6.47000       -0.32000
O          4.43000        5.79000       -2.39000
H          0.56000       -1.07000        0.41000
H          0.30000        0.45000       -0.46000
H          0.66000        0.45000        1.28000
H          2.89000       -1.55000        1.41000
H          3.04000        0.08000        2.09000
H          4.28000       -0.53000        0.98000
H          2.21000       -1.87000       -1.06000
H          3.69000       -1.03000       -1.45000
H          2.16000       -0.46000       -2.13000
H          1.46000        2.44000        1.08000
H          2.13000        4.73000        0.57000
H          5.19000        3.26000       -2.08000
H          4.51000        0.97000       -1.62000
H          4.30000        5.03000       -3.00000
