17
   
C         -1.42000       -0.08000        0.12000
C         -0.81000        1.16000       -0.03000
C          0.58000        1.27000       -0.12000
C          1.37000        0.12000       -0.05000
C          0.74000       -1.13000        0.12000
C         -0.64000       -1.23000        0.20000
P          3.19000        0.21000       -0.26000
O          3.48000       -0.42000        1.11000
O          3.22000       -1.00000       -1.37000
O          4.90000        0.29000       -0.45000
H         -2.50000       -0.16000        0.18000
H         -1.43000        2.06000       -0.09000
H          1.04000        2.25000       -0.24000
H          1.36000       -2.03000        0.17000
H         -1.11000       -2.21000        0.32000
H          3.67000       -0.72000       -2.19000
H          5.21000       -0.41000        0.17000
