14
   
C         -0.60000       -1.22000        0.00000
C         -1.33000       -0.04000        0.02000
C         -0.65000        1.17000        0.01000
N          0.70000        1.27000       -0.02000
C          1.38000        0.08000       -0.04000
C          0.79000       -1.17000       -0.03000
C          2.87000        0.20000       -0.08000
O          3.65000       -0.73000       -0.09000
O          3.24000        1.51000       -0.09000
H         -1.11000       -2.18000        0.01000
H         -2.42000       -0.05000        0.04000
H         -1.18000        2.12000        0.02000
H          1.39000       -2.07000       -0.04000
H          2.42000        2.06000       -0.08000
