20
   
N          3.07200       -0.17500        1.24300
C          2.37200       -0.01900       -0.02600
C          2.79100       -1.07600       -1.01700
C          2.49600       -2.43800       -0.76900
C          2.87200       -3.43600       -1.67300
C          3.53800       -3.04700       -2.81400
O          3.97800       -3.87400       -3.79900
C          4.58400       -2.92300       -4.69900
O          4.49500       -1.55800       -4.24100
C          3.83200       -1.72800       -3.06400
C          3.47500       -0.72100       -2.19100
H          2.84800        0.61400        1.84600
H          4.07500       -0.13200        1.07200
H          2.57200        0.98100       -0.42700
H          1.29100       -0.08700        0.13600
H          1.97700       -2.71600        0.14700
H          2.64900       -4.48000       -1.48300
H          4.08800       -2.99800       -5.67400
H          5.64200       -3.18200       -4.82300
H          3.72300        0.31000       -2.41700
