17
   
C         -1.44000       -0.05000       -0.03000
C         -0.80000        1.19000       -0.03000
C          0.59000        1.21000       -0.05000
N          1.38000        0.10000       -0.05000
C          0.72000       -1.10000       -0.04000
C         -0.66000       -1.22000       -0.06000
C         -1.24000       -2.58000       -0.05000
O         -0.67000       -3.53000        0.45000
O         -2.43000       -2.68000       -0.68000
C          1.32000        2.51000       -0.06000
O          0.79000        3.61000       -0.08000
O          2.66000        2.31000       -0.06000
H         -2.52000       -0.09000        0.02000
H         -1.37000        2.11000       -0.02000
H          1.36000       -1.98000       -0.03000
H         -2.72000       -1.91000       -1.20000
H          2.84000        1.34000       -0.04000
