10
   
C         -0.63100       -1.23800       -0.02900
C         -1.38800       -0.07600       -0.03200
C         -0.72200        1.13200        0.05000
N          0.62200        1.21700        0.13300
N          1.36400        0.07600        0.13600
C          0.74300       -1.11800        0.05700
H         -1.09900       -2.21400       -0.09200
H         -2.46900       -0.10900       -0.09800
H         -1.24900        2.07900        0.05300
H          1.39500       -1.98300        0.06500
