32
   
C         -1.32800       -0.04000        0.39900
C         -0.64800        1.18500        0.40200
C          0.68800        1.21100        0.04100
C          1.34400        0.02900       -0.28500
C          0.66400       -1.18600       -0.32200
C         -0.70800       -1.23600       -0.02600
C         -1.46900       -2.51300       -0.17100
C         -2.76300       -2.56400       -0.56100
C         -3.43300       -3.88800       -0.63000
O         -4.62600       -4.01900       -0.88400
C         -2.59900       -5.07300       -0.43000
C         -3.12200       -6.36100       -0.59600
C         -2.30400       -7.47600       -0.44000
C         -0.96300       -7.28800       -0.11400
C         -0.43700       -6.00800        0.05900
C         -1.26100       -4.89200       -0.09600
O         -0.70400       -3.65000        0.09500
O         -0.12700       -8.35400        0.04300
O         -4.42900       -6.60300       -0.92700
O         -3.52900       -1.47800       -0.94400
O          2.67500        0.05800       -0.59400
O          1.40200        2.37500       -0.01000
H         -2.36800       -0.04000        0.72700
H         -1.17700        2.08900        0.68700
H          1.21400       -2.08100       -0.60200
H         -2.72600       -8.46700       -0.57800
H          0.61400       -5.88900        0.31000
H         -0.63100       -9.17700       -0.10300
H         -4.88900       -5.73500       -1.00100
H         -2.93700       -0.80800       -1.32600
H          2.93100        0.99700       -0.49700
H          0.79000        3.11800        0.13300
