14
   
C          1.03000       -0.14000       -0.16000
C          0.42000        0.17000       -1.53000
C          0.84000       -0.90000       -2.55000
O          0.05000       -1.54000       -3.24000
O          2.18000       -1.04000       -2.67000
N         -1.06000        0.24000       -1.43000
O          2.46000       -0.16000       -0.27000
H          0.70000       -1.12000        0.21000
H          0.77000        0.63000        0.57000
H          0.78000        1.13000       -1.90000
H          2.65000       -0.53000       -1.96000
H         -1.41000       -0.70000       -1.23000
H         -1.42000        0.41000       -2.38000
H          2.79000       -0.51000        0.58000
