18
   
O          1.87000        0.01900        1.16700
C          2.44000        0.10000       -0.05300
O          2.44500       -0.80800       -0.86500
C          3.10100        1.40100       -0.29400
C          2.47000        2.60700        0.03900
C          3.11500        3.82100       -0.21400
C          4.38200        3.82400       -0.81400
C          5.01200        2.61800       -1.14200
C          4.36500        1.40600       -0.89500
C          5.09800        5.09000       -1.08100
O          4.30800        6.03300       -1.63400
O          6.28500        5.24200       -0.85400
H          2.10300        0.74300        1.77800
H          1.47300        2.61100        0.47600
H          2.63400        4.75400        0.07400
H          6.00300        2.62200       -1.59400
H          4.84700        0.46800       -1.16600
H          3.43500        5.71500       -1.93100
