12
   
C         -1.40000       -0.04000        0.00000
C         -0.76000        1.13000        0.01000
N          0.61000        1.18000        0.00000
C          1.41000        0.07000        0.00000
O          2.63000        0.16000       -0.01000
N          0.76000       -1.13000        0.00000
C         -0.60000       -1.29000       -0.01000
O         -1.15000       -2.38000       -0.03000
H         -2.48000       -0.14000        0.00000
H         -1.29000        2.08000        0.01000
H          1.09000        2.08000        0.00000
H          1.32000       -1.96000       -0.01000
