8
   
C          0.96000       -0.10000       -0.02000
O          0.35000       -1.03000       -0.53000
N          0.35000        0.95000        0.56000
N          2.31000       -0.04000        0.01000
H         -0.66000        0.95000        0.57000
H          0.85000        1.71000        0.99000
H          2.82000       -0.80000       -0.41000
H          2.81000        0.72000        0.44000
